/*--------------------------------*- C++ -*----------------------------------*\
| =========                 |                                                 |
| \\      /  F ield         | OpenFOAM: The Open Source CFD Toolbox           |
|  \\    /   O peration     | Version:  v1806                                 |
|   \\  /    A nd           | Web:      www.OpenFOAM.com                      |
|    \\/     M anipulation  |                                                 |
\*---------------------------------------------------------------------------*/
FoamFile
{
    version     2.0;
    format      ascii;
    class       vectorField;
    location    "constant";
    object      cloud_of_points;
}
// * * * * * * * * * * * * * * * * * * * * * * * * * * * * * * * * * * * * * //


900
(
(0.25 0.75 0)
(0.25 0.25 0)
(0.75 0.25 0)
(0.75 0.75 0)
(0.267241 0.25 0)
(0.284483 0.25 0)
(0.301724 0.25 0)
(0.318966 0.25 0)
(0.336207 0.25 0)
(0.353448 0.25 0)
(0.37069 0.25 0)
(0.387931 0.25 0)
(0.405172 0.25 0)
(0.422414 0.25 0)
(0.439655 0.25 0)
(0.456897 0.25 0)
(0.474138 0.25 0)
(0.491379 0.25 0)
(0.508621 0.25 0)
(0.525862 0.25 0)
(0.543103 0.25 0)
(0.560345 0.25 0)
(0.577586 0.25 0)
(0.594828 0.25 0)
(0.612069 0.25 0)
(0.62931 0.25 0)
(0.646552 0.25 0)
(0.663793 0.25 0)
(0.681034 0.25 0)
(0.698276 0.25 0)
(0.715517 0.25 0)
(0.732759 0.25 0)
(0.75 0.267241 0)
(0.75 0.284483 0)
(0.75 0.301724 0)
(0.75 0.318966 0)
(0.75 0.336207 0)
(0.75 0.353448 0)
(0.75 0.37069 0)
(0.75 0.387931 0)
(0.75 0.405172 0)
(0.75 0.422414 0)
(0.75 0.439655 0)
(0.75 0.456897 0)
(0.75 0.474138 0)
(0.75 0.491379 0)
(0.75 0.508621 0)
(0.75 0.525862 0)
(0.75 0.543103 0)
(0.75 0.560345 0)
(0.75 0.577586 0)
(0.75 0.594828 0)
(0.75 0.612069 0)
(0.75 0.62931 0)
(0.75 0.646552 0)
(0.75 0.663793 0)
(0.75 0.681034 0)
(0.75 0.698276 0)
(0.75 0.715517 0)
(0.75 0.732759 0)
(0.732759 0.75 0)
(0.715517 0.75 0)
(0.698276 0.75 0)
(0.681034 0.75 0)
(0.663793 0.75 0)
(0.646552 0.75 0)
(0.62931 0.75 0)
(0.612069 0.75 0)
(0.594828 0.75 0)
(0.577586 0.75 0)
(0.560345 0.75 0)
(0.543103 0.75 0)
(0.525862 0.75 0)
(0.508621 0.75 0)
(0.491379 0.75 0)
(0.474138 0.75 0)
(0.456897 0.75 0)
(0.439655 0.75 0)
(0.422414 0.75 0)
(0.405172 0.75 0)
(0.387931 0.75 0)
(0.37069 0.75 0)
(0.353448 0.75 0)
(0.336207 0.75 0)
(0.318966 0.75 0)
(0.301724 0.75 0)
(0.284483 0.75 0)
(0.267241 0.75 0)
(0.25 0.732759 0)
(0.25 0.715517 0)
(0.25 0.698276 0)
(0.25 0.681034 0)
(0.25 0.663793 0)
(0.25 0.646552 0)
(0.25 0.62931 0)
(0.25 0.612069 0)
(0.25 0.594828 0)
(0.25 0.577586 0)
(0.25 0.560345 0)
(0.25 0.543103 0)
(0.25 0.525862 0)
(0.25 0.508621 0)
(0.25 0.491379 0)
(0.25 0.474138 0)
(0.25 0.456897 0)
(0.25 0.439655 0)
(0.25 0.422414 0)
(0.25 0.405172 0)
(0.25 0.387931 0)
(0.25 0.37069 0)
(0.25 0.353448 0)
(0.25 0.336207 0)
(0.25 0.318966 0)
(0.25 0.301724 0)
(0.25 0.284483 0)
(0.25 0.267241 0)
(0.267241 0.732759 0)
(0.284483 0.732759 0)
(0.301724 0.732759 0)
(0.318966 0.732759 0)
(0.336207 0.732759 0)
(0.353448 0.732759 0)
(0.37069 0.732759 0)
(0.387931 0.732759 0)
(0.405172 0.732759 0)
(0.422414 0.732759 0)
(0.439655 0.732759 0)
(0.456897 0.732759 0)
(0.474138 0.732759 0)
(0.491379 0.732759 0)
(0.508621 0.732759 0)
(0.525862 0.732759 0)
(0.543103 0.732759 0)
(0.560345 0.732759 0)
(0.577586 0.732759 0)
(0.594828 0.732759 0)
(0.612069 0.732759 0)
(0.62931 0.732759 0)
(0.646552 0.732759 0)
(0.663793 0.732759 0)
(0.681034 0.732759 0)
(0.698276 0.732759 0)
(0.715517 0.732759 0)
(0.732759 0.732759 0)
(0.267241 0.715517 0)
(0.284483 0.715517 0)
(0.301724 0.715517 0)
(0.318966 0.715517 0)
(0.336207 0.715517 0)
(0.353448 0.715517 0)
(0.37069 0.715517 0)
(0.387931 0.715517 0)
(0.405172 0.715517 0)
(0.422414 0.715517 0)
(0.439655 0.715517 0)
(0.456897 0.715517 0)
(0.474138 0.715517 0)
(0.491379 0.715517 0)
(0.508621 0.715517 0)
(0.525862 0.715517 0)
(0.543103 0.715517 0)
(0.560345 0.715517 0)
(0.577586 0.715517 0)
(0.594828 0.715517 0)
(0.612069 0.715517 0)
(0.62931 0.715517 0)
(0.646552 0.715517 0)
(0.663793 0.715517 0)
(0.681034 0.715517 0)
(0.698276 0.715517 0)
(0.715517 0.715517 0)
(0.732759 0.715517 0)
(0.267241 0.698276 0)
(0.284483 0.698276 0)
(0.301724 0.698276 0)
(0.318966 0.698276 0)
(0.336207 0.698276 0)
(0.353448 0.698276 0)
(0.37069 0.698276 0)
(0.387931 0.698276 0)
(0.405172 0.698276 0)
(0.422414 0.698276 0)
(0.439655 0.698276 0)
(0.456897 0.698276 0)
(0.474138 0.698276 0)
(0.491379 0.698276 0)
(0.508621 0.698276 0)
(0.525862 0.698276 0)
(0.543103 0.698276 0)
(0.560345 0.698276 0)
(0.577586 0.698276 0)
(0.594828 0.698276 0)
(0.612069 0.698276 0)
(0.62931 0.698276 0)
(0.646552 0.698276 0)
(0.663793 0.698276 0)
(0.681034 0.698276 0)
(0.698276 0.698276 0)
(0.715517 0.698276 0)
(0.732759 0.698276 0)
(0.267241 0.681034 0)
(0.284483 0.681034 0)
(0.301724 0.681034 0)
(0.318966 0.681034 0)
(0.336207 0.681034 0)
(0.353448 0.681034 0)
(0.37069 0.681034 0)
(0.387931 0.681034 0)
(0.405172 0.681034 0)
(0.422414 0.681034 0)
(0.439655 0.681034 0)
(0.456897 0.681034 0)
(0.474138 0.681034 0)
(0.491379 0.681034 0)
(0.508621 0.681034 0)
(0.525862 0.681034 0)
(0.543103 0.681034 0)
(0.560345 0.681034 0)
(0.577586 0.681034 0)
(0.594828 0.681034 0)
(0.612069 0.681034 0)
(0.62931 0.681034 0)
(0.646552 0.681034 0)
(0.663793 0.681034 0)
(0.681034 0.681034 0)
(0.698276 0.681034 0)
(0.715517 0.681034 0)
(0.732759 0.681034 0)
(0.267241 0.663793 0)
(0.284483 0.663793 0)
(0.301724 0.663793 0)
(0.318966 0.663793 0)
(0.336207 0.663793 0)
(0.353448 0.663793 0)
(0.37069 0.663793 0)
(0.387931 0.663793 0)
(0.405172 0.663793 0)
(0.422414 0.663793 0)
(0.439655 0.663793 0)
(0.456897 0.663793 0)
(0.474138 0.663793 0)
(0.491379 0.663793 0)
(0.508621 0.663793 0)
(0.525862 0.663793 0)
(0.543103 0.663793 0)
(0.560345 0.663793 0)
(0.577586 0.663793 0)
(0.594828 0.663793 0)
(0.612069 0.663793 0)
(0.62931 0.663793 0)
(0.646552 0.663793 0)
(0.663793 0.663793 0)
(0.681034 0.663793 0)
(0.698276 0.663793 0)
(0.715517 0.663793 0)
(0.732759 0.663793 0)
(0.267241 0.646552 0)
(0.284483 0.646552 0)
(0.301724 0.646552 0)
(0.318966 0.646552 0)
(0.336207 0.646552 0)
(0.353448 0.646552 0)
(0.37069 0.646552 0)
(0.387931 0.646552 0)
(0.405172 0.646552 0)
(0.422414 0.646552 0)
(0.439655 0.646552 0)
(0.456897 0.646552 0)
(0.474138 0.646552 0)
(0.491379 0.646552 0)
(0.508621 0.646552 0)
(0.525862 0.646552 0)
(0.543103 0.646552 0)
(0.560345 0.646552 0)
(0.577586 0.646552 0)
(0.594828 0.646552 0)
(0.612069 0.646552 0)
(0.62931 0.646552 0)
(0.646552 0.646552 0)
(0.663793 0.646552 0)
(0.681034 0.646552 0)
(0.698276 0.646552 0)
(0.715517 0.646552 0)
(0.732759 0.646552 0)
(0.267241 0.62931 0)
(0.284483 0.62931 0)
(0.301724 0.62931 0)
(0.318966 0.62931 0)
(0.336207 0.62931 0)
(0.353448 0.62931 0)
(0.37069 0.62931 0)
(0.387931 0.62931 0)
(0.405172 0.62931 0)
(0.422414 0.62931 0)
(0.439655 0.62931 0)
(0.456897 0.62931 0)
(0.474138 0.62931 0)
(0.491379 0.62931 0)
(0.508621 0.62931 0)
(0.525862 0.62931 0)
(0.543103 0.62931 0)
(0.560345 0.62931 0)
(0.577586 0.62931 0)
(0.594828 0.62931 0)
(0.612069 0.62931 0)
(0.62931 0.62931 0)
(0.646552 0.62931 0)
(0.663793 0.62931 0)
(0.681034 0.62931 0)
(0.698276 0.62931 0)
(0.715517 0.62931 0)
(0.732759 0.62931 0)
(0.267241 0.612069 0)
(0.284483 0.612069 0)
(0.301724 0.612069 0)
(0.318966 0.612069 0)
(0.336207 0.612069 0)
(0.353448 0.612069 0)
(0.37069 0.612069 0)
(0.387931 0.612069 0)
(0.405172 0.612069 0)
(0.422414 0.612069 0)
(0.439655 0.612069 0)
(0.456897 0.612069 0)
(0.474138 0.612069 0)
(0.491379 0.612069 0)
(0.508621 0.612069 0)
(0.525862 0.612069 0)
(0.543103 0.612069 0)
(0.560345 0.612069 0)
(0.577586 0.612069 0)
(0.594828 0.612069 0)
(0.612069 0.612069 0)
(0.62931 0.612069 0)
(0.646552 0.612069 0)
(0.663793 0.612069 0)
(0.681034 0.612069 0)
(0.698276 0.612069 0)
(0.715517 0.612069 0)
(0.732759 0.612069 0)
(0.267241 0.594828 0)
(0.284483 0.594828 0)
(0.301724 0.594828 0)
(0.318966 0.594828 0)
(0.336207 0.594828 0)
(0.353448 0.594828 0)
(0.37069 0.594828 0)
(0.387931 0.594828 0)
(0.405172 0.594828 0)
(0.422414 0.594828 0)
(0.439655 0.594828 0)
(0.456897 0.594828 0)
(0.474138 0.594828 0)
(0.491379 0.594828 0)
(0.508621 0.594828 0)
(0.525862 0.594828 0)
(0.543103 0.594828 0)
(0.560345 0.594828 0)
(0.577586 0.594828 0)
(0.594828 0.594828 0)
(0.612069 0.594828 0)
(0.62931 0.594828 0)
(0.646552 0.594828 0)
(0.663793 0.594828 0)
(0.681034 0.594828 0)
(0.698276 0.594828 0)
(0.715517 0.594828 0)
(0.732759 0.594828 0)
(0.267241 0.577586 0)
(0.284483 0.577586 0)
(0.301724 0.577586 0)
(0.318966 0.577586 0)
(0.336207 0.577586 0)
(0.353448 0.577586 0)
(0.37069 0.577586 0)
(0.387931 0.577586 0)
(0.405172 0.577586 0)
(0.422414 0.577586 0)
(0.439655 0.577586 0)
(0.456897 0.577586 0)
(0.474138 0.577586 0)
(0.491379 0.577586 0)
(0.508621 0.577586 0)
(0.525862 0.577586 0)
(0.543103 0.577586 0)
(0.560345 0.577586 0)
(0.577586 0.577586 0)
(0.594828 0.577586 0)
(0.612069 0.577586 0)
(0.62931 0.577586 0)
(0.646552 0.577586 0)
(0.663793 0.577586 0)
(0.681034 0.577586 0)
(0.698276 0.577586 0)
(0.715517 0.577586 0)
(0.732759 0.577586 0)
(0.267241 0.560345 0)
(0.284483 0.560345 0)
(0.301724 0.560345 0)
(0.318966 0.560345 0)
(0.336207 0.560345 0)
(0.353448 0.560345 0)
(0.37069 0.560345 0)
(0.387931 0.560345 0)
(0.405172 0.560345 0)
(0.422414 0.560345 0)
(0.439655 0.560345 0)
(0.456897 0.560345 0)
(0.474138 0.560345 0)
(0.491379 0.560345 0)
(0.508621 0.560345 0)
(0.525862 0.560345 0)
(0.543103 0.560345 0)
(0.560345 0.560345 0)
(0.577586 0.560345 0)
(0.594828 0.560345 0)
(0.612069 0.560345 0)
(0.62931 0.560345 0)
(0.646552 0.560345 0)
(0.663793 0.560345 0)
(0.681034 0.560345 0)
(0.698276 0.560345 0)
(0.715517 0.560345 0)
(0.732759 0.560345 0)
(0.267241 0.543103 0)
(0.284483 0.543103 0)
(0.301724 0.543103 0)
(0.318966 0.543103 0)
(0.336207 0.543103 0)
(0.353448 0.543103 0)
(0.37069 0.543103 0)
(0.387931 0.543103 0)
(0.405172 0.543103 0)
(0.422414 0.543103 0)
(0.439655 0.543103 0)
(0.456897 0.543103 0)
(0.474138 0.543103 0)
(0.491379 0.543103 0)
(0.508621 0.543103 0)
(0.525862 0.543103 0)
(0.543103 0.543103 0)
(0.560345 0.543103 0)
(0.577586 0.543103 0)
(0.594828 0.543103 0)
(0.612069 0.543103 0)
(0.62931 0.543103 0)
(0.646552 0.543103 0)
(0.663793 0.543103 0)
(0.681034 0.543103 0)
(0.698276 0.543103 0)
(0.715517 0.543103 0)
(0.732759 0.543103 0)
(0.267241 0.525862 0)
(0.284483 0.525862 0)
(0.301724 0.525862 0)
(0.318966 0.525862 0)
(0.336207 0.525862 0)
(0.353448 0.525862 0)
(0.37069 0.525862 0)
(0.387931 0.525862 0)
(0.405172 0.525862 0)
(0.422414 0.525862 0)
(0.439655 0.525862 0)
(0.456897 0.525862 0)
(0.474138 0.525862 0)
(0.491379 0.525862 0)
(0.508621 0.525862 0)
(0.525862 0.525862 0)
(0.543103 0.525862 0)
(0.560345 0.525862 0)
(0.577586 0.525862 0)
(0.594828 0.525862 0)
(0.612069 0.525862 0)
(0.62931 0.525862 0)
(0.646552 0.525862 0)
(0.663793 0.525862 0)
(0.681034 0.525862 0)
(0.698276 0.525862 0)
(0.715517 0.525862 0)
(0.732759 0.525862 0)
(0.267241 0.508621 0)
(0.284483 0.508621 0)
(0.301724 0.508621 0)
(0.318966 0.508621 0)
(0.336207 0.508621 0)
(0.353448 0.508621 0)
(0.37069 0.508621 0)
(0.387931 0.508621 0)
(0.405172 0.508621 0)
(0.422414 0.508621 0)
(0.439655 0.508621 0)
(0.456897 0.508621 0)
(0.474138 0.508621 0)
(0.491379 0.508621 0)
(0.508621 0.508621 0)
(0.525862 0.508621 0)
(0.543103 0.508621 0)
(0.560345 0.508621 0)
(0.577586 0.508621 0)
(0.594828 0.508621 0)
(0.612069 0.508621 0)
(0.62931 0.508621 0)
(0.646552 0.508621 0)
(0.663793 0.508621 0)
(0.681034 0.508621 0)
(0.698276 0.508621 0)
(0.715517 0.508621 0)
(0.732759 0.508621 0)
(0.267241 0.491379 0)
(0.284483 0.491379 0)
(0.301724 0.491379 0)
(0.318966 0.491379 0)
(0.336207 0.491379 0)
(0.353448 0.491379 0)
(0.37069 0.491379 0)
(0.387931 0.491379 0)
(0.405172 0.491379 0)
(0.422414 0.491379 0)
(0.439655 0.491379 0)
(0.456897 0.491379 0)
(0.474138 0.491379 0)
(0.491379 0.491379 0)
(0.508621 0.491379 0)
(0.525862 0.491379 0)
(0.543103 0.491379 0)
(0.560345 0.491379 0)
(0.577586 0.491379 0)
(0.594828 0.491379 0)
(0.612069 0.491379 0)
(0.62931 0.491379 0)
(0.646552 0.491379 0)
(0.663793 0.491379 0)
(0.681034 0.491379 0)
(0.698276 0.491379 0)
(0.715517 0.491379 0)
(0.732759 0.491379 0)
(0.267241 0.474138 0)
(0.284483 0.474138 0)
(0.301724 0.474138 0)
(0.318966 0.474138 0)
(0.336207 0.474138 0)
(0.353448 0.474138 0)
(0.37069 0.474138 0)
(0.387931 0.474138 0)
(0.405172 0.474138 0)
(0.422414 0.474138 0)
(0.439655 0.474138 0)
(0.456897 0.474138 0)
(0.474138 0.474138 0)
(0.491379 0.474138 0)
(0.508621 0.474138 0)
(0.525862 0.474138 0)
(0.543103 0.474138 0)
(0.560345 0.474138 0)
(0.577586 0.474138 0)
(0.594828 0.474138 0)
(0.612069 0.474138 0)
(0.62931 0.474138 0)
(0.646552 0.474138 0)
(0.663793 0.474138 0)
(0.681034 0.474138 0)
(0.698276 0.474138 0)
(0.715517 0.474138 0)
(0.732759 0.474138 0)
(0.267241 0.456897 0)
(0.284483 0.456897 0)
(0.301724 0.456897 0)
(0.318966 0.456897 0)
(0.336207 0.456897 0)
(0.353448 0.456897 0)
(0.37069 0.456897 0)
(0.387931 0.456897 0)
(0.405172 0.456897 0)
(0.422414 0.456897 0)
(0.439655 0.456897 0)
(0.456897 0.456897 0)
(0.474138 0.456897 0)
(0.491379 0.456897 0)
(0.508621 0.456897 0)
(0.525862 0.456897 0)
(0.543103 0.456897 0)
(0.560345 0.456897 0)
(0.577586 0.456897 0)
(0.594828 0.456897 0)
(0.612069 0.456897 0)
(0.62931 0.456897 0)
(0.646552 0.456897 0)
(0.663793 0.456897 0)
(0.681034 0.456897 0)
(0.698276 0.456897 0)
(0.715517 0.456897 0)
(0.732759 0.456897 0)
(0.267241 0.439655 0)
(0.284483 0.439655 0)
(0.301724 0.439655 0)
(0.318966 0.439655 0)
(0.336207 0.439655 0)
(0.353448 0.439655 0)
(0.37069 0.439655 0)
(0.387931 0.439655 0)
(0.405172 0.439655 0)
(0.422414 0.439655 0)
(0.439655 0.439655 0)
(0.456897 0.439655 0)
(0.474138 0.439655 0)
(0.491379 0.439655 0)
(0.508621 0.439655 0)
(0.525862 0.439655 0)
(0.543103 0.439655 0)
(0.560345 0.439655 0)
(0.577586 0.439655 0)
(0.594828 0.439655 0)
(0.612069 0.439655 0)
(0.62931 0.439655 0)
(0.646552 0.439655 0)
(0.663793 0.439655 0)
(0.681034 0.439655 0)
(0.698276 0.439655 0)
(0.715517 0.439655 0)
(0.732759 0.439655 0)
(0.267241 0.422414 0)
(0.284483 0.422414 0)
(0.301724 0.422414 0)
(0.318966 0.422414 0)
(0.336207 0.422414 0)
(0.353448 0.422414 0)
(0.37069 0.422414 0)
(0.387931 0.422414 0)
(0.405172 0.422414 0)
(0.422414 0.422414 0)
(0.439655 0.422414 0)
(0.456897 0.422414 0)
(0.474138 0.422414 0)
(0.491379 0.422414 0)
(0.508621 0.422414 0)
(0.525862 0.422414 0)
(0.543103 0.422414 0)
(0.560345 0.422414 0)
(0.577586 0.422414 0)
(0.594828 0.422414 0)
(0.612069 0.422414 0)
(0.62931 0.422414 0)
(0.646552 0.422414 0)
(0.663793 0.422414 0)
(0.681034 0.422414 0)
(0.698276 0.422414 0)
(0.715517 0.422414 0)
(0.732759 0.422414 0)
(0.267241 0.405172 0)
(0.284483 0.405172 0)
(0.301724 0.405172 0)
(0.318966 0.405172 0)
(0.336207 0.405172 0)
(0.353448 0.405172 0)
(0.37069 0.405172 0)
(0.387931 0.405172 0)
(0.405172 0.405172 0)
(0.422414 0.405172 0)
(0.439655 0.405172 0)
(0.456897 0.405172 0)
(0.474138 0.405172 0)
(0.491379 0.405172 0)
(0.508621 0.405172 0)
(0.525862 0.405172 0)
(0.543103 0.405172 0)
(0.560345 0.405172 0)
(0.577586 0.405172 0)
(0.594828 0.405172 0)
(0.612069 0.405172 0)
(0.62931 0.405172 0)
(0.646552 0.405172 0)
(0.663793 0.405172 0)
(0.681034 0.405172 0)
(0.698276 0.405172 0)
(0.715517 0.405172 0)
(0.732759 0.405172 0)
(0.267241 0.387931 0)
(0.284483 0.387931 0)
(0.301724 0.387931 0)
(0.318966 0.387931 0)
(0.336207 0.387931 0)
(0.353448 0.387931 0)
(0.37069 0.387931 0)
(0.387931 0.387931 0)
(0.405172 0.387931 0)
(0.422414 0.387931 0)
(0.439655 0.387931 0)
(0.456897 0.387931 0)
(0.474138 0.387931 0)
(0.491379 0.387931 0)
(0.508621 0.387931 0)
(0.525862 0.387931 0)
(0.543103 0.387931 0)
(0.560345 0.387931 0)
(0.577586 0.387931 0)
(0.594828 0.387931 0)
(0.612069 0.387931 0)
(0.62931 0.387931 0)
(0.646552 0.387931 0)
(0.663793 0.387931 0)
(0.681034 0.387931 0)
(0.698276 0.387931 0)
(0.715517 0.387931 0)
(0.732759 0.387931 0)
(0.267241 0.37069 0)
(0.284483 0.37069 0)
(0.301724 0.37069 0)
(0.318966 0.37069 0)
(0.336207 0.37069 0)
(0.353448 0.37069 0)
(0.37069 0.37069 0)
(0.387931 0.37069 0)
(0.405172 0.37069 0)
(0.422414 0.37069 0)
(0.439655 0.37069 0)
(0.456897 0.37069 0)
(0.474138 0.37069 0)
(0.491379 0.37069 0)
(0.508621 0.37069 0)
(0.525862 0.37069 0)
(0.543103 0.37069 0)
(0.560345 0.37069 0)
(0.577586 0.37069 0)
(0.594828 0.37069 0)
(0.612069 0.37069 0)
(0.62931 0.37069 0)
(0.646552 0.37069 0)
(0.663793 0.37069 0)
(0.681034 0.37069 0)
(0.698276 0.37069 0)
(0.715517 0.37069 0)
(0.732759 0.37069 0)
(0.267241 0.353448 0)
(0.284483 0.353448 0)
(0.301724 0.353448 0)
(0.318966 0.353448 0)
(0.336207 0.353448 0)
(0.353448 0.353448 0)
(0.37069 0.353448 0)
(0.387931 0.353448 0)
(0.405172 0.353448 0)
(0.422414 0.353448 0)
(0.439655 0.353448 0)
(0.456897 0.353448 0)
(0.474138 0.353448 0)
(0.491379 0.353448 0)
(0.508621 0.353448 0)
(0.525862 0.353448 0)
(0.543103 0.353448 0)
(0.560345 0.353448 0)
(0.577586 0.353448 0)
(0.594828 0.353448 0)
(0.612069 0.353448 0)
(0.62931 0.353448 0)
(0.646552 0.353448 0)
(0.663793 0.353448 0)
(0.681034 0.353448 0)
(0.698276 0.353448 0)
(0.715517 0.353448 0)
(0.732759 0.353448 0)
(0.267241 0.336207 0)
(0.284483 0.336207 0)
(0.301724 0.336207 0)
(0.318966 0.336207 0)
(0.336207 0.336207 0)
(0.353448 0.336207 0)
(0.37069 0.336207 0)
(0.387931 0.336207 0)
(0.405172 0.336207 0)
(0.422414 0.336207 0)
(0.439655 0.336207 0)
(0.456897 0.336207 0)
(0.474138 0.336207 0)
(0.491379 0.336207 0)
(0.508621 0.336207 0)
(0.525862 0.336207 0)
(0.543103 0.336207 0)
(0.560345 0.336207 0)
(0.577586 0.336207 0)
(0.594828 0.336207 0)
(0.612069 0.336207 0)
(0.62931 0.336207 0)
(0.646552 0.336207 0)
(0.663793 0.336207 0)
(0.681034 0.336207 0)
(0.698276 0.336207 0)
(0.715517 0.336207 0)
(0.732759 0.336207 0)
(0.267241 0.318966 0)
(0.284483 0.318966 0)
(0.301724 0.318966 0)
(0.318966 0.318966 0)
(0.336207 0.318966 0)
(0.353448 0.318966 0)
(0.37069 0.318966 0)
(0.387931 0.318966 0)
(0.405172 0.318966 0)
(0.422414 0.318966 0)
(0.439655 0.318966 0)
(0.456897 0.318966 0)
(0.474138 0.318966 0)
(0.491379 0.318966 0)
(0.508621 0.318966 0)
(0.525862 0.318966 0)
(0.543103 0.318966 0)
(0.560345 0.318966 0)
(0.577586 0.318966 0)
(0.594828 0.318966 0)
(0.612069 0.318966 0)
(0.62931 0.318966 0)
(0.646552 0.318966 0)
(0.663793 0.318966 0)
(0.681034 0.318966 0)
(0.698276 0.318966 0)
(0.715517 0.318966 0)
(0.732759 0.318966 0)
(0.267241 0.301724 0)
(0.284483 0.301724 0)
(0.301724 0.301724 0)
(0.318966 0.301724 0)
(0.336207 0.301724 0)
(0.353448 0.301724 0)
(0.37069 0.301724 0)
(0.387931 0.301724 0)
(0.405172 0.301724 0)
(0.422414 0.301724 0)
(0.439655 0.301724 0)
(0.456897 0.301724 0)
(0.474138 0.301724 0)
(0.491379 0.301724 0)
(0.508621 0.301724 0)
(0.525862 0.301724 0)
(0.543103 0.301724 0)
(0.560345 0.301724 0)
(0.577586 0.301724 0)
(0.594828 0.301724 0)
(0.612069 0.301724 0)
(0.62931 0.301724 0)
(0.646552 0.301724 0)
(0.663793 0.301724 0)
(0.681034 0.301724 0)
(0.698276 0.301724 0)
(0.715517 0.301724 0)
(0.732759 0.301724 0)
(0.267241 0.284483 0)
(0.284483 0.284483 0)
(0.301724 0.284483 0)
(0.318966 0.284483 0)
(0.336207 0.284483 0)
(0.353448 0.284483 0)
(0.37069 0.284483 0)
(0.387931 0.284483 0)
(0.405172 0.284483 0)
(0.422414 0.284483 0)
(0.439655 0.284483 0)
(0.456897 0.284483 0)
(0.474138 0.284483 0)
(0.491379 0.284483 0)
(0.508621 0.284483 0)
(0.525862 0.284483 0)
(0.543103 0.284483 0)
(0.560345 0.284483 0)
(0.577586 0.284483 0)
(0.594828 0.284483 0)
(0.612069 0.284483 0)
(0.62931 0.284483 0)
(0.646552 0.284483 0)
(0.663793 0.284483 0)
(0.681034 0.284483 0)
(0.698276 0.284483 0)
(0.715517 0.284483 0)
(0.732759 0.284483 0)
(0.267241 0.267241 0)
(0.284483 0.267241 0)
(0.301724 0.267241 0)
(0.318966 0.267241 0)
(0.336207 0.267241 0)
(0.353448 0.267241 0)
(0.37069 0.267241 0)
(0.387931 0.267241 0)
(0.405172 0.267241 0)
(0.422414 0.267241 0)
(0.439655 0.267241 0)
(0.456897 0.267241 0)
(0.474138 0.267241 0)
(0.491379 0.267241 0)
(0.508621 0.267241 0)
(0.525862 0.267241 0)
(0.543103 0.267241 0)
(0.560345 0.267241 0)
(0.577586 0.267241 0)
(0.594828 0.267241 0)
(0.612069 0.267241 0)
(0.62931 0.267241 0)
(0.646552 0.267241 0)
(0.663793 0.267241 0)
(0.681034 0.267241 0)
(0.698276 0.267241 0)
(0.715517 0.267241 0)
(0.732759 0.267241 0)
)


// ************************************************************************* //
