/*--------------------------------*- C++ -*----------------------------------*\
| =========                 |                                                 |
| \\      /  F ield         | OpenFOAM: The Open Source CFD Toolbox           |
|  \\    /   O peration     | Version:  v1806                                 |
|   \\  /    A nd           | Web:      www.OpenFOAM.com                      |
|    \\/     M anipulation  |                                                 |
\*---------------------------------------------------------------------------*/
FoamFile
{
    version     2.0;
    format      ascii;
    class       labelListList;
    location    "constant";
    object      connectivity;
}
// * * * * * * * * * * * * * * * * * * * * * * * * * * * * * * * * * * * * * //


1682
(
3(0 88 87)
3(87 88 116)
3(87 116 86)
3(86 116 117)
3(86 117 85)
3(85 117 118)
3(85 118 84)
3(84 118 119)
3(84 119 83)
3(83 119 120)
3(83 120 82)
3(82 120 121)
3(82 121 81)
3(81 121 122)
3(81 122 80)
3(80 122 123)
3(80 123 79)
3(79 123 124)
3(79 124 78)
3(78 124 125)
3(78 125 77)
3(77 125 126)
3(77 126 76)
3(76 126 127)
3(76 127 75)
3(75 127 128)
3(75 128 74)
3(74 128 129)
3(74 129 73)
3(73 129 130)
3(73 130 72)
3(72 130 131)
3(72 131 71)
3(71 131 132)
3(71 132 70)
3(70 132 133)
3(70 133 69)
3(69 133 134)
3(69 134 68)
3(68 134 135)
3(68 135 67)
3(67 135 136)
3(67 136 66)
3(66 136 137)
3(66 137 65)
3(65 137 138)
3(65 138 64)
3(64 138 139)
3(64 139 63)
3(63 139 140)
3(63 140 62)
3(62 140 141)
3(62 141 61)
3(61 141 142)
3(61 142 60)
3(60 142 143)
3(60 143 3)
3(3 143 59)
3(88 89 116)
3(116 89 144)
3(116 144 117)
3(117 144 145)
3(117 145 118)
3(118 145 146)
3(118 146 119)
3(119 146 147)
3(119 147 120)
3(120 147 148)
3(120 148 121)
3(121 148 149)
3(121 149 122)
3(122 149 150)
3(122 150 123)
3(123 150 151)
3(123 151 124)
3(124 151 152)
3(124 152 125)
3(125 152 153)
3(125 153 126)
3(126 153 154)
3(126 154 127)
3(127 154 155)
3(127 155 128)
3(128 155 156)
3(128 156 129)
3(129 156 157)
3(129 157 130)
3(130 157 158)
3(130 158 131)
3(131 158 159)
3(131 159 132)
3(132 159 160)
3(132 160 133)
3(133 160 161)
3(133 161 134)
3(134 161 162)
3(134 162 135)
3(135 162 163)
3(135 163 136)
3(136 163 164)
3(136 164 137)
3(137 164 165)
3(137 165 138)
3(138 165 166)
3(138 166 139)
3(139 166 167)
3(139 167 140)
3(140 167 168)
3(140 168 141)
3(141 168 169)
3(141 169 142)
3(142 169 170)
3(142 170 143)
3(143 170 171)
3(143 171 59)
3(59 171 58)
3(89 90 144)
3(144 90 172)
3(144 172 145)
3(145 172 173)
3(145 173 146)
3(146 173 174)
3(146 174 147)
3(147 174 175)
3(147 175 148)
3(148 175 176)
3(148 176 149)
3(149 176 177)
3(149 177 150)
3(150 177 178)
3(150 178 151)
3(151 178 179)
3(151 179 152)
3(152 179 180)
3(152 180 153)
3(153 180 181)
3(153 181 154)
3(154 181 182)
3(154 182 155)
3(155 182 183)
3(155 183 156)
3(156 183 184)
3(156 184 157)
3(157 184 185)
3(157 185 158)
3(158 185 186)
3(158 186 159)
3(159 186 187)
3(159 187 160)
3(160 187 188)
3(160 188 161)
3(161 188 189)
3(161 189 162)
3(162 189 190)
3(162 190 163)
3(163 190 191)
3(163 191 164)
3(164 191 192)
3(164 192 165)
3(165 192 193)
3(165 193 166)
3(166 193 194)
3(166 194 167)
3(167 194 195)
3(167 195 168)
3(168 195 196)
3(168 196 169)
3(169 196 197)
3(169 197 170)
3(170 197 198)
3(170 198 171)
3(171 198 199)
3(171 199 58)
3(58 199 57)
3(90 91 172)
3(172 91 200)
3(172 200 173)
3(173 200 201)
3(173 201 174)
3(174 201 202)
3(174 202 175)
3(175 202 203)
3(175 203 176)
3(176 203 204)
3(176 204 177)
3(177 204 205)
3(177 205 178)
3(178 205 206)
3(178 206 179)
3(179 206 207)
3(179 207 180)
3(180 207 208)
3(180 208 181)
3(181 208 209)
3(181 209 182)
3(182 209 210)
3(182 210 183)
3(183 210 211)
3(183 211 184)
3(184 211 212)
3(184 212 185)
3(185 212 213)
3(185 213 186)
3(186 213 214)
3(186 214 187)
3(187 214 215)
3(187 215 188)
3(188 215 216)
3(188 216 189)
3(189 216 217)
3(189 217 190)
3(190 217 218)
3(190 218 191)
3(191 218 219)
3(191 219 192)
3(192 219 220)
3(192 220 193)
3(193 220 221)
3(193 221 194)
3(194 221 222)
3(194 222 195)
3(195 222 223)
3(195 223 196)
3(196 223 224)
3(196 224 197)
3(197 224 225)
3(197 225 198)
3(198 225 226)
3(198 226 199)
3(199 226 227)
3(199 227 57)
3(57 227 56)
3(91 92 200)
3(200 92 228)
3(200 228 201)
3(201 228 229)
3(201 229 202)
3(202 229 230)
3(202 230 203)
3(203 230 231)
3(203 231 204)
3(204 231 232)
3(204 232 205)
3(205 232 233)
3(205 233 206)
3(206 233 234)
3(206 234 207)
3(207 234 235)
3(207 235 208)
3(208 235 236)
3(208 236 209)
3(209 236 237)
3(209 237 210)
3(210 237 238)
3(210 238 211)
3(211 238 239)
3(211 239 212)
3(212 239 240)
3(212 240 213)
3(213 240 241)
3(213 241 214)
3(214 241 242)
3(214 242 215)
3(215 242 243)
3(215 243 216)
3(216 243 244)
3(216 244 217)
3(217 244 245)
3(217 245 218)
3(218 245 246)
3(218 246 219)
3(219 246 247)
3(219 247 220)
3(220 247 248)
3(220 248 221)
3(221 248 249)
3(221 249 222)
3(222 249 250)
3(222 250 223)
3(223 250 251)
3(223 251 224)
3(224 251 252)
3(224 252 225)
3(225 252 253)
3(225 253 226)
3(226 253 254)
3(226 254 227)
3(227 254 255)
3(227 255 56)
3(56 255 55)
3(92 93 228)
3(228 93 256)
3(228 256 229)
3(229 256 257)
3(229 257 230)
3(230 257 258)
3(230 258 231)
3(231 258 259)
3(231 259 232)
3(232 259 260)
3(232 260 233)
3(233 260 261)
3(233 261 234)
3(234 261 262)
3(234 262 235)
3(235 262 263)
3(235 263 236)
3(236 263 264)
3(236 264 237)
3(237 264 265)
3(237 265 238)
3(238 265 266)
3(238 266 239)
3(239 266 267)
3(239 267 240)
3(240 267 268)
3(240 268 241)
3(241 268 269)
3(241 269 242)
3(242 269 270)
3(242 270 243)
3(243 270 271)
3(243 271 244)
3(244 271 272)
3(244 272 245)
3(245 272 273)
3(245 273 246)
3(246 273 274)
3(246 274 247)
3(247 274 275)
3(247 275 248)
3(248 275 276)
3(248 276 249)
3(249 276 277)
3(249 277 250)
3(250 277 278)
3(250 278 251)
3(251 278 279)
3(251 279 252)
3(252 279 280)
3(252 280 253)
3(253 280 281)
3(253 281 254)
3(254 281 282)
3(254 282 255)
3(255 282 283)
3(255 283 55)
3(55 283 54)
3(93 94 256)
3(256 94 284)
3(256 284 257)
3(257 284 285)
3(257 285 258)
3(258 285 286)
3(258 286 259)
3(259 286 287)
3(259 287 260)
3(260 287 288)
3(260 288 261)
3(261 288 289)
3(261 289 262)
3(262 289 290)
3(262 290 263)
3(263 290 291)
3(263 291 264)
3(264 291 292)
3(264 292 265)
3(265 292 293)
3(265 293 266)
3(266 293 294)
3(266 294 267)
3(267 294 295)
3(267 295 268)
3(268 295 296)
3(268 296 269)
3(269 296 297)
3(269 297 270)
3(270 297 298)
3(270 298 271)
3(271 298 299)
3(271 299 272)
3(272 299 300)
3(272 300 273)
3(273 300 301)
3(273 301 274)
3(274 301 302)
3(274 302 275)
3(275 302 303)
3(275 303 276)
3(276 303 304)
3(276 304 277)
3(277 304 305)
3(277 305 278)
3(278 305 306)
3(278 306 279)
3(279 306 307)
3(279 307 280)
3(280 307 308)
3(280 308 281)
3(281 308 309)
3(281 309 282)
3(282 309 310)
3(282 310 283)
3(283 310 311)
3(283 311 54)
3(54 311 53)
3(94 95 284)
3(284 95 312)
3(284 312 285)
3(285 312 313)
3(285 313 286)
3(286 313 314)
3(286 314 287)
3(287 314 315)
3(287 315 288)
3(288 315 316)
3(288 316 289)
3(289 316 317)
3(289 317 290)
3(290 317 318)
3(290 318 291)
3(291 318 319)
3(291 319 292)
3(292 319 320)
3(292 320 293)
3(293 320 321)
3(293 321 294)
3(294 321 322)
3(294 322 295)
3(295 322 323)
3(295 323 296)
3(296 323 324)
3(296 324 297)
3(297 324 325)
3(297 325 298)
3(298 325 326)
3(298 326 299)
3(299 326 327)
3(299 327 300)
3(300 327 328)
3(300 328 301)
3(301 328 329)
3(301 329 302)
3(302 329 330)
3(302 330 303)
3(303 330 331)
3(303 331 304)
3(304 331 332)
3(304 332 305)
3(305 332 333)
3(305 333 306)
3(306 333 334)
3(306 334 307)
3(307 334 335)
3(307 335 308)
3(308 335 336)
3(308 336 309)
3(309 336 337)
3(309 337 310)
3(310 337 338)
3(310 338 311)
3(311 338 339)
3(311 339 53)
3(53 339 52)
3(95 96 312)
3(312 96 340)
3(312 340 313)
3(313 340 341)
3(313 341 314)
3(314 341 342)
3(314 342 315)
3(315 342 343)
3(315 343 316)
3(316 343 344)
3(316 344 317)
3(317 344 345)
3(317 345 318)
3(318 345 346)
3(318 346 319)
3(319 346 347)
3(319 347 320)
3(320 347 348)
3(320 348 321)
3(321 348 349)
3(321 349 322)
3(322 349 350)
3(322 350 323)
3(323 350 351)
3(323 351 324)
3(324 351 352)
3(324 352 325)
3(325 352 353)
3(325 353 326)
3(326 353 354)
3(326 354 327)
3(327 354 355)
3(327 355 328)
3(328 355 356)
3(328 356 329)
3(329 356 357)
3(329 357 330)
3(330 357 358)
3(330 358 331)
3(331 358 359)
3(331 359 332)
3(332 359 360)
3(332 360 333)
3(333 360 361)
3(333 361 334)
3(334 361 362)
3(334 362 335)
3(335 362 363)
3(335 363 336)
3(336 363 364)
3(336 364 337)
3(337 364 365)
3(337 365 338)
3(338 365 366)
3(338 366 339)
3(339 366 367)
3(339 367 52)
3(52 367 51)
3(96 97 340)
3(340 97 368)
3(340 368 341)
3(341 368 369)
3(341 369 342)
3(342 369 370)
3(342 370 343)
3(343 370 371)
3(343 371 344)
3(344 371 372)
3(344 372 345)
3(345 372 373)
3(345 373 346)
3(346 373 374)
3(346 374 347)
3(347 374 375)
3(347 375 348)
3(348 375 376)
3(348 376 349)
3(349 376 377)
3(349 377 350)
3(350 377 378)
3(350 378 351)
3(351 378 379)
3(351 379 352)
3(352 379 380)
3(352 380 353)
3(353 380 381)
3(353 381 354)
3(354 381 382)
3(354 382 355)
3(355 382 383)
3(355 383 356)
3(356 383 384)
3(356 384 357)
3(357 384 385)
3(357 385 358)
3(358 385 386)
3(358 386 359)
3(359 386 387)
3(359 387 360)
3(360 387 388)
3(360 388 361)
3(361 388 389)
3(361 389 362)
3(362 389 390)
3(362 390 363)
3(363 390 391)
3(363 391 364)
3(364 391 392)
3(364 392 365)
3(365 392 393)
3(365 393 366)
3(366 393 394)
3(366 394 367)
3(367 394 395)
3(367 395 51)
3(51 395 50)
3(97 98 368)
3(368 98 396)
3(368 396 369)
3(369 396 397)
3(369 397 370)
3(370 397 398)
3(370 398 371)
3(371 398 399)
3(371 399 372)
3(372 399 400)
3(372 400 373)
3(373 400 401)
3(373 401 374)
3(374 401 402)
3(374 402 375)
3(375 402 403)
3(375 403 376)
3(376 403 404)
3(376 404 377)
3(377 404 405)
3(377 405 378)
3(378 405 406)
3(378 406 379)
3(379 406 407)
3(379 407 380)
3(380 407 408)
3(380 408 381)
3(381 408 409)
3(381 409 382)
3(382 409 410)
3(382 410 383)
3(383 410 411)
3(383 411 384)
3(384 411 412)
3(384 412 385)
3(385 412 413)
3(385 413 386)
3(386 413 414)
3(386 414 387)
3(387 414 415)
3(387 415 388)
3(388 415 416)
3(388 416 389)
3(389 416 417)
3(389 417 390)
3(390 417 418)
3(390 418 391)
3(391 418 419)
3(391 419 392)
3(392 419 420)
3(392 420 393)
3(393 420 421)
3(393 421 394)
3(394 421 422)
3(394 422 395)
3(395 422 423)
3(395 423 50)
3(50 423 49)
3(98 99 396)
3(396 99 424)
3(396 424 397)
3(397 424 425)
3(397 425 398)
3(398 425 426)
3(398 426 399)
3(399 426 427)
3(399 427 400)
3(400 427 428)
3(400 428 401)
3(401 428 429)
3(401 429 402)
3(402 429 430)
3(402 430 403)
3(403 430 431)
3(403 431 404)
3(404 431 432)
3(404 432 405)
3(405 432 433)
3(405 433 406)
3(406 433 434)
3(406 434 407)
3(407 434 435)
3(407 435 408)
3(408 435 436)
3(408 436 409)
3(409 436 437)
3(409 437 410)
3(410 437 438)
3(410 438 411)
3(411 438 439)
3(411 439 412)
3(412 439 440)
3(412 440 413)
3(413 440 441)
3(413 441 414)
3(414 441 442)
3(414 442 415)
3(415 442 443)
3(415 443 416)
3(416 443 444)
3(416 444 417)
3(417 444 445)
3(417 445 418)
3(418 445 446)
3(418 446 419)
3(419 446 447)
3(419 447 420)
3(420 447 448)
3(420 448 421)
3(421 448 449)
3(421 449 422)
3(422 449 450)
3(422 450 423)
3(423 450 451)
3(423 451 49)
3(49 451 48)
3(99 100 424)
3(424 100 452)
3(424 452 425)
3(425 452 453)
3(425 453 426)
3(426 453 454)
3(426 454 427)
3(427 454 455)
3(427 455 428)
3(428 455 456)
3(428 456 429)
3(429 456 457)
3(429 457 430)
3(430 457 458)
3(430 458 431)
3(431 458 459)
3(431 459 432)
3(432 459 460)
3(432 460 433)
3(433 460 461)
3(433 461 434)
3(434 461 462)
3(434 462 435)
3(435 462 463)
3(435 463 436)
3(436 463 464)
3(436 464 437)
3(437 464 465)
3(437 465 438)
3(438 465 466)
3(438 466 439)
3(439 466 467)
3(439 467 440)
3(440 467 468)
3(440 468 441)
3(441 468 469)
3(441 469 442)
3(442 469 470)
3(442 470 443)
3(443 470 471)
3(443 471 444)
3(444 471 472)
3(444 472 445)
3(445 472 473)
3(445 473 446)
3(446 473 474)
3(446 474 447)
3(447 474 475)
3(447 475 448)
3(448 475 476)
3(448 476 449)
3(449 476 477)
3(449 477 450)
3(450 477 478)
3(450 478 451)
3(451 478 479)
3(451 479 48)
3(48 479 47)
3(100 101 452)
3(452 101 480)
3(452 480 453)
3(453 480 481)
3(453 481 454)
3(454 481 482)
3(454 482 455)
3(455 482 483)
3(455 483 456)
3(456 483 484)
3(456 484 457)
3(457 484 485)
3(457 485 458)
3(458 485 486)
3(458 486 459)
3(459 486 487)
3(459 487 460)
3(460 487 488)
3(460 488 461)
3(461 488 489)
3(461 489 462)
3(462 489 490)
3(462 490 463)
3(463 490 491)
3(463 491 464)
3(464 491 492)
3(464 492 465)
3(465 492 493)
3(465 493 466)
3(466 493 494)
3(466 494 467)
3(467 494 495)
3(467 495 468)
3(468 495 496)
3(468 496 469)
3(469 496 497)
3(469 497 470)
3(470 497 498)
3(470 498 471)
3(471 498 499)
3(471 499 472)
3(472 499 500)
3(472 500 473)
3(473 500 501)
3(473 501 474)
3(474 501 502)
3(474 502 475)
3(475 502 503)
3(475 503 476)
3(476 503 504)
3(476 504 477)
3(477 504 505)
3(477 505 478)
3(478 505 506)
3(478 506 479)
3(479 506 507)
3(479 507 47)
3(47 507 46)
3(101 102 480)
3(480 102 508)
3(480 508 481)
3(481 508 509)
3(481 509 482)
3(482 509 510)
3(482 510 483)
3(483 510 511)
3(483 511 484)
3(484 511 512)
3(484 512 485)
3(485 512 513)
3(485 513 486)
3(486 513 514)
3(486 514 487)
3(487 514 515)
3(487 515 488)
3(488 515 516)
3(488 516 489)
3(489 516 517)
3(489 517 490)
3(490 517 518)
3(490 518 491)
3(491 518 519)
3(491 519 492)
3(492 519 520)
3(492 520 493)
3(493 520 521)
3(493 521 494)
3(494 521 522)
3(494 522 495)
3(495 522 523)
3(495 523 496)
3(496 523 524)
3(496 524 497)
3(497 524 525)
3(497 525 498)
3(498 525 526)
3(498 526 499)
3(499 526 527)
3(499 527 500)
3(500 527 528)
3(500 528 501)
3(501 528 529)
3(501 529 502)
3(502 529 530)
3(502 530 503)
3(503 530 531)
3(503 531 504)
3(504 531 532)
3(504 532 505)
3(505 532 533)
3(505 533 506)
3(506 533 534)
3(506 534 507)
3(507 534 535)
3(507 535 46)
3(46 535 45)
3(102 103 508)
3(508 103 536)
3(508 536 509)
3(509 536 537)
3(509 537 510)
3(510 537 538)
3(510 538 511)
3(511 538 539)
3(511 539 512)
3(512 539 540)
3(512 540 513)
3(513 540 541)
3(513 541 514)
3(514 541 542)
3(514 542 515)
3(515 542 543)
3(515 543 516)
3(516 543 544)
3(516 544 517)
3(517 544 545)
3(517 545 518)
3(518 545 546)
3(518 546 519)
3(519 546 547)
3(519 547 520)
3(520 547 548)
3(520 548 521)
3(521 548 549)
3(521 549 522)
3(522 549 550)
3(522 550 523)
3(523 550 551)
3(523 551 524)
3(524 551 552)
3(524 552 525)
3(525 552 553)
3(525 553 526)
3(526 553 554)
3(526 554 527)
3(527 554 555)
3(527 555 528)
3(528 555 556)
3(528 556 529)
3(529 556 557)
3(529 557 530)
3(530 557 558)
3(530 558 531)
3(531 558 559)
3(531 559 532)
3(532 559 560)
3(532 560 533)
3(533 560 561)
3(533 561 534)
3(534 561 562)
3(534 562 535)
3(535 562 563)
3(535 563 45)
3(45 563 44)
3(103 104 536)
3(536 104 564)
3(536 564 537)
3(537 564 565)
3(537 565 538)
3(538 565 566)
3(538 566 539)
3(539 566 567)
3(539 567 540)
3(540 567 568)
3(540 568 541)
3(541 568 569)
3(541 569 542)
3(542 569 570)
3(542 570 543)
3(543 570 571)
3(543 571 544)
3(544 571 572)
3(544 572 545)
3(545 572 573)
3(545 573 546)
3(546 573 574)
3(546 574 547)
3(547 574 575)
3(547 575 548)
3(548 575 576)
3(548 576 549)
3(549 576 577)
3(549 577 550)
3(550 577 578)
3(550 578 551)
3(551 578 579)
3(551 579 552)
3(552 579 580)
3(552 580 553)
3(553 580 581)
3(553 581 554)
3(554 581 582)
3(554 582 555)
3(555 582 583)
3(555 583 556)
3(556 583 584)
3(556 584 557)
3(557 584 585)
3(557 585 558)
3(558 585 586)
3(558 586 559)
3(559 586 587)
3(559 587 560)
3(560 587 588)
3(560 588 561)
3(561 588 589)
3(561 589 562)
3(562 589 590)
3(562 590 563)
3(563 590 591)
3(563 591 44)
3(44 591 43)
3(104 105 564)
3(564 105 592)
3(564 592 565)
3(565 592 593)
3(565 593 566)
3(566 593 594)
3(566 594 567)
3(567 594 595)
3(567 595 568)
3(568 595 596)
3(568 596 569)
3(569 596 597)
3(569 597 570)
3(570 597 598)
3(570 598 571)
3(571 598 599)
3(571 599 572)
3(572 599 600)
3(572 600 573)
3(573 600 601)
3(573 601 574)
3(574 601 602)
3(574 602 575)
3(575 602 603)
3(575 603 576)
3(576 603 604)
3(576 604 577)
3(577 604 605)
3(577 605 578)
3(578 605 606)
3(578 606 579)
3(579 606 607)
3(579 607 580)
3(580 607 608)
3(580 608 581)
3(581 608 609)
3(581 609 582)
3(582 609 610)
3(582 610 583)
3(583 610 611)
3(583 611 584)
3(584 611 612)
3(584 612 585)
3(585 612 613)
3(585 613 586)
3(586 613 614)
3(586 614 587)
3(587 614 615)
3(587 615 588)
3(588 615 616)
3(588 616 589)
3(589 616 617)
3(589 617 590)
3(590 617 618)
3(590 618 591)
3(591 618 619)
3(591 619 43)
3(43 619 42)
3(105 106 592)
3(592 106 620)
3(592 620 593)
3(593 620 621)
3(593 621 594)
3(594 621 622)
3(594 622 595)
3(595 622 623)
3(595 623 596)
3(596 623 624)
3(596 624 597)
3(597 624 625)
3(597 625 598)
3(598 625 626)
3(598 626 599)
3(599 626 627)
3(599 627 600)
3(600 627 628)
3(600 628 601)
3(601 628 629)
3(601 629 602)
3(602 629 630)
3(602 630 603)
3(603 630 631)
3(603 631 604)
3(604 631 632)
3(604 632 605)
3(605 632 633)
3(605 633 606)
3(606 633 634)
3(606 634 607)
3(607 634 635)
3(607 635 608)
3(608 635 636)
3(608 636 609)
3(609 636 637)
3(609 637 610)
3(610 637 638)
3(610 638 611)
3(611 638 639)
3(611 639 612)
3(612 639 640)
3(612 640 613)
3(613 640 641)
3(613 641 614)
3(614 641 642)
3(614 642 615)
3(615 642 643)
3(615 643 616)
3(616 643 644)
3(616 644 617)
3(617 644 645)
3(617 645 618)
3(618 645 646)
3(618 646 619)
3(619 646 647)
3(619 647 42)
3(42 647 41)
3(106 107 620)
3(620 107 648)
3(620 648 621)
3(621 648 649)
3(621 649 622)
3(622 649 650)
3(622 650 623)
3(623 650 651)
3(623 651 624)
3(624 651 652)
3(624 652 625)
3(625 652 653)
3(625 653 626)
3(626 653 654)
3(626 654 627)
3(627 654 655)
3(627 655 628)
3(628 655 656)
3(628 656 629)
3(629 656 657)
3(629 657 630)
3(630 657 658)
3(630 658 631)
3(631 658 659)
3(631 659 632)
3(632 659 660)
3(632 660 633)
3(633 660 661)
3(633 661 634)
3(634 661 662)
3(634 662 635)
3(635 662 663)
3(635 663 636)
3(636 663 664)
3(636 664 637)
3(637 664 665)
3(637 665 638)
3(638 665 666)
3(638 666 639)
3(639 666 667)
3(639 667 640)
3(640 667 668)
3(640 668 641)
3(641 668 669)
3(641 669 642)
3(642 669 670)
3(642 670 643)
3(643 670 671)
3(643 671 644)
3(644 671 672)
3(644 672 645)
3(645 672 673)
3(645 673 646)
3(646 673 674)
3(646 674 647)
3(647 674 675)
3(647 675 41)
3(41 675 40)
3(107 108 648)
3(648 108 676)
3(648 676 649)
3(649 676 677)
3(649 677 650)
3(650 677 678)
3(650 678 651)
3(651 678 679)
3(651 679 652)
3(652 679 680)
3(652 680 653)
3(653 680 681)
3(653 681 654)
3(654 681 682)
3(654 682 655)
3(655 682 683)
3(655 683 656)
3(656 683 684)
3(656 684 657)
3(657 684 685)
3(657 685 658)
3(658 685 686)
3(658 686 659)
3(659 686 687)
3(659 687 660)
3(660 687 688)
3(660 688 661)
3(661 688 689)
3(661 689 662)
3(662 689 690)
3(662 690 663)
3(663 690 691)
3(663 691 664)
3(664 691 692)
3(664 692 665)
3(665 692 693)
3(665 693 666)
3(666 693 694)
3(666 694 667)
3(667 694 695)
3(667 695 668)
3(668 695 696)
3(668 696 669)
3(669 696 697)
3(669 697 670)
3(670 697 698)
3(670 698 671)
3(671 698 699)
3(671 699 672)
3(672 699 700)
3(672 700 673)
3(673 700 701)
3(673 701 674)
3(674 701 702)
3(674 702 675)
3(675 702 703)
3(675 703 40)
3(40 703 39)
3(108 109 676)
3(676 109 704)
3(676 704 677)
3(677 704 705)
3(677 705 678)
3(678 705 706)
3(678 706 679)
3(679 706 707)
3(679 707 680)
3(680 707 708)
3(680 708 681)
3(681 708 709)
3(681 709 682)
3(682 709 710)
3(682 710 683)
3(683 710 711)
3(683 711 684)
3(684 711 712)
3(684 712 685)
3(685 712 713)
3(685 713 686)
3(686 713 714)
3(686 714 687)
3(687 714 715)
3(687 715 688)
3(688 715 716)
3(688 716 689)
3(689 716 717)
3(689 717 690)
3(690 717 718)
3(690 718 691)
3(691 718 719)
3(691 719 692)
3(692 719 720)
3(692 720 693)
3(693 720 721)
3(693 721 694)
3(694 721 722)
3(694 722 695)
3(695 722 723)
3(695 723 696)
3(696 723 724)
3(696 724 697)
3(697 724 725)
3(697 725 698)
3(698 725 726)
3(698 726 699)
3(699 726 727)
3(699 727 700)
3(700 727 728)
3(700 728 701)
3(701 728 729)
3(701 729 702)
3(702 729 730)
3(702 730 703)
3(703 730 731)
3(703 731 39)
3(39 731 38)
3(109 110 704)
3(704 110 732)
3(704 732 705)
3(705 732 733)
3(705 733 706)
3(706 733 734)
3(706 734 707)
3(707 734 735)
3(707 735 708)
3(708 735 736)
3(708 736 709)
3(709 736 737)
3(709 737 710)
3(710 737 738)
3(710 738 711)
3(711 738 739)
3(711 739 712)
3(712 739 740)
3(712 740 713)
3(713 740 741)
3(713 741 714)
3(714 741 742)
3(714 742 715)
3(715 742 743)
3(715 743 716)
3(716 743 744)
3(716 744 717)
3(717 744 745)
3(717 745 718)
3(718 745 746)
3(718 746 719)
3(719 746 747)
3(719 747 720)
3(720 747 748)
3(720 748 721)
3(721 748 749)
3(721 749 722)
3(722 749 750)
3(722 750 723)
3(723 750 751)
3(723 751 724)
3(724 751 752)
3(724 752 725)
3(725 752 753)
3(725 753 726)
3(726 753 754)
3(726 754 727)
3(727 754 755)
3(727 755 728)
3(728 755 756)
3(728 756 729)
3(729 756 757)
3(729 757 730)
3(730 757 758)
3(730 758 731)
3(731 758 759)
3(731 759 38)
3(38 759 37)
3(110 111 732)
3(732 111 760)
3(732 760 733)
3(733 760 761)
3(733 761 734)
3(734 761 762)
3(734 762 735)
3(735 762 763)
3(735 763 736)
3(736 763 764)
3(736 764 737)
3(737 764 765)
3(737 765 738)
3(738 765 766)
3(738 766 739)
3(739 766 767)
3(739 767 740)
3(740 767 768)
3(740 768 741)
3(741 768 769)
3(741 769 742)
3(742 769 770)
3(742 770 743)
3(743 770 771)
3(743 771 744)
3(744 771 772)
3(744 772 745)
3(745 772 773)
3(745 773 746)
3(746 773 774)
3(746 774 747)
3(747 774 775)
3(747 775 748)
3(748 775 776)
3(748 776 749)
3(749 776 777)
3(749 777 750)
3(750 777 778)
3(750 778 751)
3(751 778 779)
3(751 779 752)
3(752 779 780)
3(752 780 753)
3(753 780 781)
3(753 781 754)
3(754 781 782)
3(754 782 755)
3(755 782 783)
3(755 783 756)
3(756 783 784)
3(756 784 757)
3(757 784 785)
3(757 785 758)
3(758 785 786)
3(758 786 759)
3(759 786 787)
3(759 787 37)
3(37 787 36)
3(111 112 760)
3(760 112 788)
3(760 788 761)
3(761 788 789)
3(761 789 762)
3(762 789 790)
3(762 790 763)
3(763 790 791)
3(763 791 764)
3(764 791 792)
3(764 792 765)
3(765 792 793)
3(765 793 766)
3(766 793 794)
3(766 794 767)
3(767 794 795)
3(767 795 768)
3(768 795 796)
3(768 796 769)
3(769 796 797)
3(769 797 770)
3(770 797 798)
3(770 798 771)
3(771 798 799)
3(771 799 772)
3(772 799 800)
3(772 800 773)
3(773 800 801)
3(773 801 774)
3(774 801 802)
3(774 802 775)
3(775 802 803)
3(775 803 776)
3(776 803 804)
3(776 804 777)
3(777 804 805)
3(777 805 778)
3(778 805 806)
3(778 806 779)
3(779 806 807)
3(779 807 780)
3(780 807 808)
3(780 808 781)
3(781 808 809)
3(781 809 782)
3(782 809 810)
3(782 810 783)
3(783 810 811)
3(783 811 784)
3(784 811 812)
3(784 812 785)
3(785 812 813)
3(785 813 786)
3(786 813 814)
3(786 814 787)
3(787 814 815)
3(787 815 36)
3(36 815 35)
3(112 113 788)
3(788 113 816)
3(788 816 789)
3(789 816 817)
3(789 817 790)
3(790 817 818)
3(790 818 791)
3(791 818 819)
3(791 819 792)
3(792 819 820)
3(792 820 793)
3(793 820 821)
3(793 821 794)
3(794 821 822)
3(794 822 795)
3(795 822 823)
3(795 823 796)
3(796 823 824)
3(796 824 797)
3(797 824 825)
3(797 825 798)
3(798 825 826)
3(798 826 799)
3(799 826 827)
3(799 827 800)
3(800 827 828)
3(800 828 801)
3(801 828 829)
3(801 829 802)
3(802 829 830)
3(802 830 803)
3(803 830 831)
3(803 831 804)
3(804 831 832)
3(804 832 805)
3(805 832 833)
3(805 833 806)
3(806 833 834)
3(806 834 807)
3(807 834 835)
3(807 835 808)
3(808 835 836)
3(808 836 809)
3(809 836 837)
3(809 837 810)
3(810 837 838)
3(810 838 811)
3(811 838 839)
3(811 839 812)
3(812 839 840)
3(812 840 813)
3(813 840 841)
3(813 841 814)
3(814 841 842)
3(814 842 815)
3(815 842 843)
3(815 843 35)
3(35 843 34)
3(113 114 816)
3(816 114 844)
3(816 844 817)
3(817 844 845)
3(817 845 818)
3(818 845 846)
3(818 846 819)
3(819 846 847)
3(819 847 820)
3(820 847 848)
3(820 848 821)
3(821 848 849)
3(821 849 822)
3(822 849 850)
3(822 850 823)
3(823 850 851)
3(823 851 824)
3(824 851 852)
3(824 852 825)
3(825 852 853)
3(825 853 826)
3(826 853 854)
3(826 854 827)
3(827 854 855)
3(827 855 828)
3(828 855 856)
3(828 856 829)
3(829 856 857)
3(829 857 830)
3(830 857 858)
3(830 858 831)
3(831 858 859)
3(831 859 832)
3(832 859 860)
3(832 860 833)
3(833 860 861)
3(833 861 834)
3(834 861 862)
3(834 862 835)
3(835 862 863)
3(835 863 836)
3(836 863 864)
3(836 864 837)
3(837 864 865)
3(837 865 838)
3(838 865 866)
3(838 866 839)
3(839 866 867)
3(839 867 840)
3(840 867 868)
3(840 868 841)
3(841 868 869)
3(841 869 842)
3(842 869 870)
3(842 870 843)
3(843 870 871)
3(843 871 34)
3(34 871 33)
3(114 115 844)
3(844 115 872)
3(844 872 845)
3(845 872 873)
3(845 873 846)
3(846 873 874)
3(846 874 847)
3(847 874 875)
3(847 875 848)
3(848 875 876)
3(848 876 849)
3(849 876 877)
3(849 877 850)
3(850 877 878)
3(850 878 851)
3(851 878 879)
3(851 879 852)
3(852 879 880)
3(852 880 853)
3(853 880 881)
3(853 881 854)
3(854 881 882)
3(854 882 855)
3(855 882 883)
3(855 883 856)
3(856 883 884)
3(856 884 857)
3(857 884 885)
3(857 885 858)
3(858 885 886)
3(858 886 859)
3(859 886 887)
3(859 887 860)
3(860 887 888)
3(860 888 861)
3(861 888 889)
3(861 889 862)
3(862 889 890)
3(862 890 863)
3(863 890 891)
3(863 891 864)
3(864 891 892)
3(864 892 865)
3(865 892 893)
3(865 893 866)
3(866 893 894)
3(866 894 867)
3(867 894 895)
3(867 895 868)
3(868 895 896)
3(868 896 869)
3(869 896 897)
3(869 897 870)
3(870 897 898)
3(870 898 871)
3(871 898 899)
3(871 899 33)
3(33 899 32)
3(115 1 872)
3(872 1 4)
3(872 4 873)
3(873 4 5)
3(873 5 874)
3(874 5 6)
3(874 6 875)
3(875 6 7)
3(875 7 876)
3(876 7 8)
3(876 8 877)
3(877 8 9)
3(877 9 878)
3(878 9 10)
3(878 10 879)
3(879 10 11)
3(879 11 880)
3(880 11 12)
3(880 12 881)
3(881 12 13)
3(881 13 882)
3(882 13 14)
3(882 14 883)
3(883 14 15)
3(883 15 884)
3(884 15 16)
3(884 16 885)
3(885 16 17)
3(885 17 886)
3(886 17 18)
3(886 18 887)
3(887 18 19)
3(887 19 888)
3(888 19 20)
3(888 20 889)
3(889 20 21)
3(889 21 890)
3(890 21 22)
3(890 22 891)
3(891 22 23)
3(891 23 892)
3(892 23 24)
3(892 24 893)
3(893 24 25)
3(893 25 894)
3(894 25 26)
3(894 26 895)
3(895 26 27)
3(895 27 896)
3(896 27 28)
3(896 28 897)
3(897 28 29)
3(897 29 898)
3(898 29 30)
3(898 30 899)
3(899 30 31)
3(899 31 32)
3(32 31 2)
)


// ************************************************************************* //
