/*--------------------------------*- C++ -*----------------------------------*\
| =========                 |                                                 |
| \\      /  F ield         | OpenFOAM: The Open Source CFD Toolbox           |
|  \\    /   O peration     | Version:  v1806                                 |
|   \\  /    A nd           | Web:      www.OpenFOAM.com                      |
|    \\/     M anipulation  |                                                 |
\*---------------------------------------------------------------------------*/
FoamFile
{
    version     2.0;
    format      ascii;
    class       vectorField;
    object      currentcloudofpoints;
}
// * * * * * * * * * * * * * * * * * * * * * * * * * * * * * * * * * * * * * //
900(

(	0.375		1		0	)
(	0.375		0		0	)
(	0.625		0		0	)
(	0.625		1		0	)
(	0.3836206897		0		0	)
(	0.3922413793		0		0	)
(	0.400862069		0		0	)
(	0.4094827586		0		0	)
(	0.4181034483		0		0	)
(	0.4267241379		0		0	)
(	0.4353448276		0		0	)
(	0.4439655172		0		0	)
(	0.4525862069		0		0	)
(	0.4612068966		0		0	)
(	0.4698275862		0		0	)
(	0.4784482759		0		0	)
(	0.4870689655		0		0	)
(	0.4956896552		0		0	)
(	0.5043103448		0		0	)
(	0.5129310345		0		0	)
(	0.5215517241		0		0	)
(	0.5301724138		0		0	)
(	0.5387931034		0		0	)
(	0.5474137931		0		0	)
(	0.5560344828		0		0	)
(	0.5646551724		0		0	)
(	0.5732758621		0		0	)
(	0.5818965517		0		0	)
(	0.5905172414		0		0	)
(	0.599137931		0		0	)
(	0.6077586207		0		0	)
(	0.6163793103		0		0	)
(	0.625		0.0344827586		0	)
(	0.625		0.0689655172		0	)
(	0.625		0.1034482759		0	)
(	0.625		0.1379310345		0	)
(	0.625		0.1724137931		0	)
(	0.625		0.2068965517		0	)
(	0.625		0.2413793103		0	)
(	0.625		0.275862069		0	)
(	0.625		0.3103448276		0	)
(	0.625		0.3448275862		0	)
(	0.625		0.3793103448		0	)
(	0.625		0.4137931034		0	)
(	0.625		0.4482758621		0	)
(	0.625		0.4827586207		0	)
(	0.625		0.5172413793		0	)
(	0.625		0.5517241379		0	)
(	0.625		0.5862068966		0	)
(	0.625		0.6206896552		0	)
(	0.625		0.6551724138		0	)
(	0.625		0.6896551724		0	)
(	0.625		0.724137931		0	)
(	0.625		0.7586206897		0	)
(	0.625		0.7931034483		0	)
(	0.625		0.8275862069		0	)
(	0.625		0.8620689655		0	)
(	0.625		0.8965517241		0	)
(	0.625		0.9310344828		0	)
(	0.625		0.9655172414		0	)
(	0.6163793103		1		0	)
(	0.6077586207		1		0	)
(	0.599137931		1		0	)
(	0.5905172414		1		0	)
(	0.5818965517		1		0	)
(	0.5732758621		1		0	)
(	0.5646551724		1		0	)
(	0.5560344828		1		0	)
(	0.5474137931		1		0	)
(	0.5387931034		1		0	)
(	0.5301724138		1		0	)
(	0.5215517241		1		0	)
(	0.5129310345		1		0	)
(	0.5043103448		1		0	)
(	0.4956896552		1		0	)
(	0.4870689655		1		0	)
(	0.4784482759		1		0	)
(	0.4698275862		1		0	)
(	0.4612068966		1		0	)
(	0.4525862069		1		0	)
(	0.4439655172		1		0	)
(	0.4353448276		1		0	)
(	0.4267241379		1		0	)
(	0.4181034483		1		0	)
(	0.4094827586		1		0	)
(	0.400862069		1		0	)
(	0.3922413793		1		0	)
(	0.3836206897		1		0	)
(	0.375		0.9655172414		0	)
(	0.375		0.9310344828		0	)
(	0.375		0.8965517241		0	)
(	0.375		0.8620689655		0	)
(	0.375		0.8275862069		0	)
(	0.375		0.7931034483		0	)
(	0.375		0.7586206897		0	)
(	0.375		0.724137931		0	)
(	0.375		0.6896551724		0	)
(	0.375		0.6551724138		0	)
(	0.375		0.6206896552		0	)
(	0.375		0.5862068966		0	)
(	0.375		0.5517241379		0	)
(	0.375		0.5172413793		0	)
(	0.375		0.4827586207		0	)
(	0.375		0.4482758621		0	)
(	0.375		0.4137931035		0	)
(	0.375		0.3793103448		0	)
(	0.375		0.3448275862		0	)
(	0.375		0.3103448276		0	)
(	0.375		0.275862069		0	)
(	0.375		0.2413793103		0	)
(	0.375		0.2068965517		0	)
(	0.375		0.1724137931		0	)
(	0.375		0.1379310345		0	)
(	0.375		0.1034482759		0	)
(	0.375		0.0689655172		0	)
(	0.375		0.0344827586		0	)
(	0.3836206897		0.9655172414		0	)
(	0.3922413793		0.9655172414		0	)
(	0.400862069		0.9655172414		0	)
(	0.4094827586		0.9655172414		0	)
(	0.4181034483		0.9655172414		0	)
(	0.4267241379		0.9655172414		0	)
(	0.4353448276		0.9655172414		0	)
(	0.4439655172		0.9655172414		0	)
(	0.4525862069		0.9655172414		0	)
(	0.4612068966		0.9655172414		0	)
(	0.4698275862		0.9655172414		0	)
(	0.4784482759		0.9655172414		0	)
(	0.4870689655		0.9655172414		0	)
(	0.4956896552		0.9655172414		0	)
(	0.5043103448		0.9655172414		0	)
(	0.5129310345		0.9655172414		0	)
(	0.5215517241		0.9655172414		0	)
(	0.5301724138		0.9655172414		0	)
(	0.5387931034		0.9655172414		0	)
(	0.5474137931		0.9655172414		0	)
(	0.5560344828		0.9655172414		0	)
(	0.5646551724		0.9655172414		0	)
(	0.5732758621		0.9655172414		0	)
(	0.5818965517		0.9655172414		0	)
(	0.5905172414		0.9655172414		0	)
(	0.599137931		0.9655172414		0	)
(	0.6077586207		0.9655172414		0	)
(	0.6163793103		0.9655172414		0	)
(	0.3836206897		0.9310344828		0	)
(	0.3922413793		0.9310344828		0	)
(	0.400862069		0.9310344828		0	)
(	0.4094827586		0.9310344828		0	)
(	0.4181034483		0.9310344828		0	)
(	0.4267241379		0.9310344828		0	)
(	0.4353448276		0.9310344828		0	)
(	0.4439655172		0.9310344828		0	)
(	0.4525862069		0.9310344828		0	)
(	0.4612068966		0.9310344828		0	)
(	0.4698275862		0.9310344828		0	)
(	0.4784482759		0.9310344828		0	)
(	0.4870689655		0.9310344828		0	)
(	0.4956896552		0.9310344828		0	)
(	0.5043103448		0.9310344828		0	)
(	0.5129310345		0.9310344828		0	)
(	0.5215517241		0.9310344828		0	)
(	0.5301724138		0.9310344828		0	)
(	0.5387931034		0.9310344828		0	)
(	0.5474137931		0.9310344828		0	)
(	0.5560344828		0.9310344828		0	)
(	0.5646551724		0.9310344828		0	)
(	0.5732758621		0.9310344828		0	)
(	0.5818965517		0.9310344828		0	)
(	0.5905172414		0.9310344828		0	)
(	0.599137931		0.9310344828		0	)
(	0.6077586207		0.9310344828		0	)
(	0.6163793103		0.9310344828		0	)
(	0.3836206897		0.8965517241		0	)
(	0.3922413793		0.8965517241		0	)
(	0.400862069		0.8965517241		0	)
(	0.4094827586		0.8965517241		0	)
(	0.4181034483		0.8965517241		0	)
(	0.4267241379		0.8965517241		0	)
(	0.4353448276		0.8965517241		0	)
(	0.4439655172		0.8965517241		0	)
(	0.4525862069		0.8965517241		0	)
(	0.4612068966		0.8965517241		0	)
(	0.4698275862		0.8965517241		0	)
(	0.4784482759		0.8965517241		0	)
(	0.4870689655		0.8965517241		0	)
(	0.4956896552		0.8965517241		0	)
(	0.5043103448		0.8965517241		0	)
(	0.5129310345		0.8965517241		0	)
(	0.5215517241		0.8965517241		0	)
(	0.5301724138		0.8965517241		0	)
(	0.5387931034		0.8965517241		0	)
(	0.5474137931		0.8965517241		0	)
(	0.5560344828		0.8965517241		0	)
(	0.5646551724		0.8965517241		0	)
(	0.5732758621		0.8965517241		0	)
(	0.5818965517		0.8965517241		0	)
(	0.5905172414		0.8965517241		0	)
(	0.599137931		0.8965517241		0	)
(	0.6077586207		0.8965517241		0	)
(	0.6163793103		0.8965517241		0	)
(	0.3836206897		0.8620689655		0	)
(	0.3922413793		0.8620689655		0	)
(	0.400862069		0.8620689655		0	)
(	0.4094827586		0.8620689655		0	)
(	0.4181034483		0.8620689655		0	)
(	0.4267241379		0.8620689655		0	)
(	0.4353448276		0.8620689655		0	)
(	0.4439655172		0.8620689655		0	)
(	0.4525862069		0.8620689655		0	)
(	0.4612068966		0.8620689655		0	)
(	0.4698275862		0.8620689655		0	)
(	0.4784482759		0.8620689655		0	)
(	0.4870689655		0.8620689655		0	)
(	0.4956896552		0.8620689655		0	)
(	0.5043103448		0.8620689655		0	)
(	0.5129310345		0.8620689655		0	)
(	0.5215517241		0.8620689655		0	)
(	0.5301724138		0.8620689655		0	)
(	0.5387931034		0.8620689655		0	)
(	0.5474137931		0.8620689655		0	)
(	0.5560344828		0.8620689655		0	)
(	0.5646551724		0.8620689655		0	)
(	0.5732758621		0.8620689655		0	)
(	0.5818965517		0.8620689655		0	)
(	0.5905172414		0.8620689655		0	)
(	0.599137931		0.8620689655		0	)
(	0.6077586207		0.8620689655		0	)
(	0.6163793103		0.8620689655		0	)
(	0.3836206897		0.8275862069		0	)
(	0.3922413793		0.8275862069		0	)
(	0.400862069		0.8275862069		0	)
(	0.4094827586		0.8275862069		0	)
(	0.4181034483		0.8275862069		0	)
(	0.4267241379		0.8275862069		0	)
(	0.4353448276		0.8275862069		0	)
(	0.4439655172		0.8275862069		0	)
(	0.4525862069		0.8275862069		0	)
(	0.4612068966		0.8275862069		0	)
(	0.4698275862		0.8275862069		0	)
(	0.4784482759		0.8275862069		0	)
(	0.4870689655		0.8275862069		0	)
(	0.4956896552		0.8275862069		0	)
(	0.5043103448		0.8275862069		0	)
(	0.5129310345		0.8275862069		0	)
(	0.5215517241		0.8275862069		0	)
(	0.5301724138		0.8275862069		0	)
(	0.5387931034		0.8275862069		0	)
(	0.5474137931		0.8275862069		0	)
(	0.5560344828		0.8275862069		0	)
(	0.5646551724		0.8275862069		0	)
(	0.5732758621		0.8275862069		0	)
(	0.5818965517		0.8275862069		0	)
(	0.5905172414		0.8275862069		0	)
(	0.599137931		0.8275862069		0	)
(	0.6077586207		0.8275862069		0	)
(	0.6163793103		0.8275862069		0	)
(	0.3836206897		0.7931034483		0	)
(	0.3922413793		0.7931034483		0	)
(	0.400862069		0.7931034483		0	)
(	0.4094827586		0.7931034483		0	)
(	0.4181034483		0.7931034483		0	)
(	0.4267241379		0.7931034483		0	)
(	0.4353448276		0.7931034483		0	)
(	0.4439655172		0.7931034483		0	)
(	0.4525862069		0.7931034483		0	)
(	0.4612068966		0.7931034483		0	)
(	0.4698275862		0.7931034483		0	)
(	0.4784482759		0.7931034483		0	)
(	0.4870689655		0.7931034483		0	)
(	0.4956896552		0.7931034483		0	)
(	0.5043103448		0.7931034483		0	)
(	0.5129310345		0.7931034483		0	)
(	0.5215517241		0.7931034483		0	)
(	0.5301724138		0.7931034483		0	)
(	0.5387931034		0.7931034483		0	)
(	0.5474137931		0.7931034483		0	)
(	0.5560344828		0.7931034483		0	)
(	0.5646551724		0.7931034483		0	)
(	0.5732758621		0.7931034483		0	)
(	0.5818965517		0.7931034483		0	)
(	0.5905172414		0.7931034483		0	)
(	0.599137931		0.7931034483		0	)
(	0.6077586207		0.7931034483		0	)
(	0.6163793103		0.7931034483		0	)
(	0.3836206897		0.7586206897		0	)
(	0.3922413793		0.7586206897		0	)
(	0.400862069		0.7586206897		0	)
(	0.4094827586		0.7586206897		0	)
(	0.4181034483		0.7586206897		0	)
(	0.4267241379		0.7586206897		0	)
(	0.4353448276		0.7586206897		0	)
(	0.4439655172		0.7586206897		0	)
(	0.4525862069		0.7586206897		0	)
(	0.4612068966		0.7586206897		0	)
(	0.4698275862		0.7586206897		0	)
(	0.4784482759		0.7586206897		0	)
(	0.4870689655		0.7586206897		0	)
(	0.4956896552		0.7586206897		0	)
(	0.5043103448		0.7586206897		0	)
(	0.5129310345		0.7586206897		0	)
(	0.5215517241		0.7586206897		0	)
(	0.5301724138		0.7586206897		0	)
(	0.5387931034		0.7586206897		0	)
(	0.5474137931		0.7586206897		0	)
(	0.5560344828		0.7586206897		0	)
(	0.5646551724		0.7586206897		0	)
(	0.5732758621		0.7586206897		0	)
(	0.5818965517		0.7586206897		0	)
(	0.5905172414		0.7586206897		0	)
(	0.599137931		0.7586206897		0	)
(	0.6077586207		0.7586206897		0	)
(	0.6163793103		0.7586206897		0	)
(	0.3836206897		0.724137931		0	)
(	0.3922413793		0.724137931		0	)
(	0.400862069		0.724137931		0	)
(	0.4094827586		0.724137931		0	)
(	0.4181034483		0.724137931		0	)
(	0.4267241379		0.724137931		0	)
(	0.4353448276		0.724137931		0	)
(	0.4439655172		0.724137931		0	)
(	0.4525862069		0.724137931		0	)
(	0.4612068966		0.724137931		0	)
(	0.4698275862		0.724137931		0	)
(	0.4784482759		0.724137931		0	)
(	0.4870689655		0.724137931		0	)
(	0.4956896552		0.724137931		0	)
(	0.5043103448		0.724137931		0	)
(	0.5129310345		0.724137931		0	)
(	0.5215517241		0.724137931		0	)
(	0.5301724138		0.724137931		0	)
(	0.5387931034		0.724137931		0	)
(	0.5474137931		0.724137931		0	)
(	0.5560344828		0.724137931		0	)
(	0.5646551724		0.724137931		0	)
(	0.5732758621		0.724137931		0	)
(	0.5818965517		0.724137931		0	)
(	0.5905172414		0.724137931		0	)
(	0.599137931		0.724137931		0	)
(	0.6077586207		0.724137931		0	)
(	0.6163793103		0.724137931		0	)
(	0.3836206897		0.6896551724		0	)
(	0.3922413793		0.6896551724		0	)
(	0.400862069		0.6896551724		0	)
(	0.4094827586		0.6896551724		0	)
(	0.4181034483		0.6896551724		0	)
(	0.4267241379		0.6896551724		0	)
(	0.4353448276		0.6896551724		0	)
(	0.4439655172		0.6896551724		0	)
(	0.4525862069		0.6896551724		0	)
(	0.4612068966		0.6896551724		0	)
(	0.4698275862		0.6896551724		0	)
(	0.4784482759		0.6896551724		0	)
(	0.4870689655		0.6896551724		0	)
(	0.4956896552		0.6896551724		0	)
(	0.5043103448		0.6896551724		0	)
(	0.5129310345		0.6896551724		0	)
(	0.5215517241		0.6896551724		0	)
(	0.5301724138		0.6896551724		0	)
(	0.5387931034		0.6896551724		0	)
(	0.5474137931		0.6896551724		0	)
(	0.5560344828		0.6896551724		0	)
(	0.5646551724		0.6896551724		0	)
(	0.5732758621		0.6896551724		0	)
(	0.5818965517		0.6896551724		0	)
(	0.5905172414		0.6896551724		0	)
(	0.599137931		0.6896551724		0	)
(	0.6077586207		0.6896551724		0	)
(	0.6163793103		0.6896551724		0	)
(	0.3836206897		0.6551724138		0	)
(	0.3922413793		0.6551724138		0	)
(	0.400862069		0.6551724138		0	)
(	0.4094827586		0.6551724138		0	)
(	0.4181034483		0.6551724138		0	)
(	0.4267241379		0.6551724138		0	)
(	0.4353448276		0.6551724138		0	)
(	0.4439655172		0.6551724138		0	)
(	0.4525862069		0.6551724138		0	)
(	0.4612068966		0.6551724138		0	)
(	0.4698275862		0.6551724138		0	)
(	0.4784482759		0.6551724138		0	)
(	0.4870689655		0.6551724138		0	)
(	0.4956896552		0.6551724138		0	)
(	0.5043103448		0.6551724138		0	)
(	0.5129310345		0.6551724138		0	)
(	0.5215517241		0.6551724138		0	)
(	0.5301724138		0.6551724138		0	)
(	0.5387931034		0.6551724138		0	)
(	0.5474137931		0.6551724138		0	)
(	0.5560344828		0.6551724138		0	)
(	0.5646551724		0.6551724138		0	)
(	0.5732758621		0.6551724138		0	)
(	0.5818965517		0.6551724138		0	)
(	0.5905172414		0.6551724138		0	)
(	0.599137931		0.6551724138		0	)
(	0.6077586207		0.6551724138		0	)
(	0.6163793103		0.6551724138		0	)
(	0.3836206897		0.6206896552		0	)
(	0.3922413793		0.6206896552		0	)
(	0.400862069		0.6206896552		0	)
(	0.4094827586		0.6206896552		0	)
(	0.4181034483		0.6206896552		0	)
(	0.4267241379		0.6206896552		0	)
(	0.4353448276		0.6206896552		0	)
(	0.4439655172		0.6206896552		0	)
(	0.4525862069		0.6206896552		0	)
(	0.4612068966		0.6206896552		0	)
(	0.4698275862		0.6206896552		0	)
(	0.4784482759		0.6206896552		0	)
(	0.4870689655		0.6206896552		0	)
(	0.4956896552		0.6206896552		0	)
(	0.5043103448		0.6206896552		0	)
(	0.5129310345		0.6206896552		0	)
(	0.5215517241		0.6206896552		0	)
(	0.5301724138		0.6206896552		0	)
(	0.5387931034		0.6206896552		0	)
(	0.5474137931		0.6206896552		0	)
(	0.5560344828		0.6206896552		0	)
(	0.5646551724		0.6206896552		0	)
(	0.5732758621		0.6206896552		0	)
(	0.5818965517		0.6206896552		0	)
(	0.5905172414		0.6206896552		0	)
(	0.599137931		0.6206896552		0	)
(	0.6077586207		0.6206896552		0	)
(	0.6163793103		0.6206896552		0	)
(	0.3836206897		0.5862068966		0	)
(	0.3922413793		0.5862068966		0	)
(	0.400862069		0.5862068966		0	)
(	0.4094827586		0.5862068966		0	)
(	0.4181034483		0.5862068966		0	)
(	0.4267241379		0.5862068966		0	)
(	0.4353448276		0.5862068966		0	)
(	0.4439655172		0.5862068966		0	)
(	0.4525862069		0.5862068966		0	)
(	0.4612068966		0.5862068966		0	)
(	0.4698275862		0.5862068966		0	)
(	0.4784482759		0.5862068966		0	)
(	0.4870689655		0.5862068966		0	)
(	0.4956896552		0.5862068966		0	)
(	0.5043103448		0.5862068966		0	)
(	0.5129310345		0.5862068966		0	)
(	0.5215517241		0.5862068966		0	)
(	0.5301724138		0.5862068966		0	)
(	0.5387931034		0.5862068966		0	)
(	0.5474137931		0.5862068966		0	)
(	0.5560344828		0.5862068966		0	)
(	0.5646551724		0.5862068966		0	)
(	0.5732758621		0.5862068966		0	)
(	0.5818965517		0.5862068966		0	)
(	0.5905172414		0.5862068966		0	)
(	0.599137931		0.5862068966		0	)
(	0.6077586207		0.5862068966		0	)
(	0.6163793103		0.5862068966		0	)
(	0.3836206897		0.5517241379		0	)
(	0.3922413793		0.5517241379		0	)
(	0.400862069		0.5517241379		0	)
(	0.4094827586		0.5517241379		0	)
(	0.4181034483		0.5517241379		0	)
(	0.4267241379		0.5517241379		0	)
(	0.4353448276		0.5517241379		0	)
(	0.4439655172		0.5517241379		0	)
(	0.4525862069		0.5517241379		0	)
(	0.4612068966		0.5517241379		0	)
(	0.4698275862		0.5517241379		0	)
(	0.4784482759		0.5517241379		0	)
(	0.4870689655		0.5517241379		0	)
(	0.4956896552		0.5517241379		0	)
(	0.5043103448		0.5517241379		0	)
(	0.5129310345		0.5517241379		0	)
(	0.5215517241		0.5517241379		0	)
(	0.5301724138		0.5517241379		0	)
(	0.5387931034		0.5517241379		0	)
(	0.5474137931		0.5517241379		0	)
(	0.5560344828		0.5517241379		0	)
(	0.5646551724		0.5517241379		0	)
(	0.5732758621		0.5517241379		0	)
(	0.5818965517		0.5517241379		0	)
(	0.5905172414		0.5517241379		0	)
(	0.599137931		0.5517241379		0	)
(	0.6077586207		0.5517241379		0	)
(	0.6163793103		0.5517241379		0	)
(	0.3836206897		0.5172413793		0	)
(	0.3922413793		0.5172413793		0	)
(	0.400862069		0.5172413793		0	)
(	0.4094827586		0.5172413793		0	)
(	0.4181034483		0.5172413793		0	)
(	0.4267241379		0.5172413793		0	)
(	0.4353448276		0.5172413793		0	)
(	0.4439655172		0.5172413793		0	)
(	0.4525862069		0.5172413793		0	)
(	0.4612068966		0.5172413793		0	)
(	0.4698275862		0.5172413793		0	)
(	0.4784482759		0.5172413793		0	)
(	0.4870689655		0.5172413793		0	)
(	0.4956896552		0.5172413793		0	)
(	0.5043103448		0.5172413793		0	)
(	0.5129310345		0.5172413793		0	)
(	0.5215517241		0.5172413793		0	)
(	0.5301724138		0.5172413793		0	)
(	0.5387931034		0.5172413793		0	)
(	0.5474137931		0.5172413793		0	)
(	0.5560344828		0.5172413793		0	)
(	0.5646551724		0.5172413793		0	)
(	0.5732758621		0.5172413793		0	)
(	0.5818965517		0.5172413793		0	)
(	0.5905172414		0.5172413793		0	)
(	0.599137931		0.5172413793		0	)
(	0.6077586207		0.5172413793		0	)
(	0.6163793103		0.5172413793		0	)
(	0.3836206897		0.4827586207		0	)
(	0.3922413793		0.4827586207		0	)
(	0.400862069		0.4827586207		0	)
(	0.4094827586		0.4827586207		0	)
(	0.4181034483		0.4827586207		0	)
(	0.4267241379		0.4827586207		0	)
(	0.4353448276		0.4827586207		0	)
(	0.4439655172		0.4827586207		0	)
(	0.4525862069		0.4827586207		0	)
(	0.4612068966		0.4827586207		0	)
(	0.4698275862		0.4827586207		0	)
(	0.4784482759		0.4827586207		0	)
(	0.4870689655		0.4827586207		0	)
(	0.4956896552		0.4827586207		0	)
(	0.5043103448		0.4827586207		0	)
(	0.5129310345		0.4827586207		0	)
(	0.5215517241		0.4827586207		0	)
(	0.5301724138		0.4827586207		0	)
(	0.5387931034		0.4827586207		0	)
(	0.5474137931		0.4827586207		0	)
(	0.5560344828		0.4827586207		0	)
(	0.5646551724		0.4827586207		0	)
(	0.5732758621		0.4827586207		0	)
(	0.5818965517		0.4827586207		0	)
(	0.5905172414		0.4827586207		0	)
(	0.599137931		0.4827586207		0	)
(	0.6077586207		0.4827586207		0	)
(	0.6163793103		0.4827586207		0	)
(	0.3836206897		0.4482758621		0	)
(	0.3922413793		0.4482758621		0	)
(	0.400862069		0.4482758621		0	)
(	0.4094827586		0.4482758621		0	)
(	0.4181034483		0.4482758621		0	)
(	0.4267241379		0.4482758621		0	)
(	0.4353448276		0.4482758621		0	)
(	0.4439655172		0.4482758621		0	)
(	0.4525862069		0.4482758621		0	)
(	0.4612068966		0.4482758621		0	)
(	0.4698275862		0.4482758621		0	)
(	0.4784482759		0.4482758621		0	)
(	0.4870689655		0.4482758621		0	)
(	0.4956896552		0.4482758621		0	)
(	0.5043103448		0.4482758621		0	)
(	0.5129310345		0.4482758621		0	)
(	0.5215517241		0.4482758621		0	)
(	0.5301724138		0.4482758621		0	)
(	0.5387931034		0.4482758621		0	)
(	0.5474137931		0.4482758621		0	)
(	0.5560344828		0.4482758621		0	)
(	0.5646551724		0.4482758621		0	)
(	0.5732758621		0.4482758621		0	)
(	0.5818965517		0.4482758621		0	)
(	0.5905172414		0.4482758621		0	)
(	0.599137931		0.4482758621		0	)
(	0.6077586207		0.4482758621		0	)
(	0.6163793103		0.4482758621		0	)
(	0.3836206897		0.4137931035		0	)
(	0.3922413793		0.4137931035		0	)
(	0.400862069		0.4137931035		0	)
(	0.4094827586		0.4137931035		0	)
(	0.4181034483		0.4137931035		0	)
(	0.4267241379		0.4137931035		0	)
(	0.4353448276		0.4137931035		0	)
(	0.4439655172		0.4137931035		0	)
(	0.4525862069		0.4137931035		0	)
(	0.4612068966		0.4137931035		0	)
(	0.4698275862		0.4137931035		0	)
(	0.4784482759		0.4137931034		0	)
(	0.4870689655		0.4137931034		0	)
(	0.4956896552		0.4137931034		0	)
(	0.5043103448		0.4137931034		0	)
(	0.5129310345		0.4137931034		0	)
(	0.5215517241		0.4137931034		0	)
(	0.5301724138		0.4137931034		0	)
(	0.5387931034		0.4137931034		0	)
(	0.5474137931		0.4137931034		0	)
(	0.5560344828		0.4137931034		0	)
(	0.5646551724		0.4137931034		0	)
(	0.5732758621		0.4137931034		0	)
(	0.5818965517		0.4137931034		0	)
(	0.5905172414		0.4137931034		0	)
(	0.599137931		0.4137931034		0	)
(	0.6077586207		0.4137931034		0	)
(	0.6163793103		0.4137931034		0	)
(	0.3836206897		0.3793103448		0	)
(	0.3922413793		0.3793103448		0	)
(	0.400862069		0.3793103448		0	)
(	0.4094827586		0.3793103448		0	)
(	0.4181034483		0.3793103448		0	)
(	0.4267241379		0.3793103448		0	)
(	0.4353448276		0.3793103448		0	)
(	0.4439655172		0.3793103448		0	)
(	0.4525862069		0.3793103448		0	)
(	0.4612068966		0.3793103448		0	)
(	0.4698275862		0.3793103448		0	)
(	0.4784482759		0.3793103448		0	)
(	0.4870689655		0.3793103448		0	)
(	0.4956896552		0.3793103448		0	)
(	0.5043103448		0.3793103448		0	)
(	0.5129310345		0.3793103448		0	)
(	0.5215517241		0.3793103448		0	)
(	0.5301724138		0.3793103448		0	)
(	0.5387931034		0.3793103448		0	)
(	0.5474137931		0.3793103448		0	)
(	0.5560344828		0.3793103448		0	)
(	0.5646551724		0.3793103448		0	)
(	0.5732758621		0.3793103448		0	)
(	0.5818965517		0.3793103448		0	)
(	0.5905172414		0.3793103448		0	)
(	0.599137931		0.3793103448		0	)
(	0.6077586207		0.3793103448		0	)
(	0.6163793103		0.3793103448		0	)
(	0.3836206897		0.3448275862		0	)
(	0.3922413793		0.3448275862		0	)
(	0.400862069		0.3448275862		0	)
(	0.4094827586		0.3448275862		0	)
(	0.4181034483		0.3448275862		0	)
(	0.4267241379		0.3448275862		0	)
(	0.4353448276		0.3448275862		0	)
(	0.4439655172		0.3448275862		0	)
(	0.4525862069		0.3448275862		0	)
(	0.4612068966		0.3448275862		0	)
(	0.4698275862		0.3448275862		0	)
(	0.4784482759		0.3448275862		0	)
(	0.4870689655		0.3448275862		0	)
(	0.4956896552		0.3448275862		0	)
(	0.5043103448		0.3448275862		0	)
(	0.5129310345		0.3448275862		0	)
(	0.5215517241		0.3448275862		0	)
(	0.5301724138		0.3448275862		0	)
(	0.5387931034		0.3448275862		0	)
(	0.5474137931		0.3448275862		0	)
(	0.5560344828		0.3448275862		0	)
(	0.5646551724		0.3448275862		0	)
(	0.5732758621		0.3448275862		0	)
(	0.5818965517		0.3448275862		0	)
(	0.5905172414		0.3448275862		0	)
(	0.599137931		0.3448275862		0	)
(	0.6077586207		0.3448275862		0	)
(	0.6163793103		0.3448275862		0	)
(	0.3836206897		0.3103448276		0	)
(	0.3922413793		0.3103448276		0	)
(	0.400862069		0.3103448276		0	)
(	0.4094827586		0.3103448276		0	)
(	0.4181034483		0.3103448276		0	)
(	0.4267241379		0.3103448276		0	)
(	0.4353448276		0.3103448276		0	)
(	0.4439655172		0.3103448276		0	)
(	0.4525862069		0.3103448276		0	)
(	0.4612068966		0.3103448276		0	)
(	0.4698275862		0.3103448276		0	)
(	0.4784482759		0.3103448276		0	)
(	0.4870689655		0.3103448276		0	)
(	0.4956896552		0.3103448276		0	)
(	0.5043103448		0.3103448276		0	)
(	0.5129310345		0.3103448276		0	)
(	0.5215517241		0.3103448276		0	)
(	0.5301724138		0.3103448276		0	)
(	0.5387931034		0.3103448276		0	)
(	0.5474137931		0.3103448276		0	)
(	0.5560344828		0.3103448276		0	)
(	0.5646551724		0.3103448276		0	)
(	0.5732758621		0.3103448276		0	)
(	0.5818965517		0.3103448276		0	)
(	0.5905172414		0.3103448276		0	)
(	0.599137931		0.3103448276		0	)
(	0.6077586207		0.3103448276		0	)
(	0.6163793103		0.3103448276		0	)
(	0.3836206897		0.275862069		0	)
(	0.3922413793		0.275862069		0	)
(	0.400862069		0.275862069		0	)
(	0.4094827586		0.275862069		0	)
(	0.4181034483		0.275862069		0	)
(	0.4267241379		0.275862069		0	)
(	0.4353448276		0.275862069		0	)
(	0.4439655172		0.275862069		0	)
(	0.4525862069		0.275862069		0	)
(	0.4612068966		0.275862069		0	)
(	0.4698275862		0.275862069		0	)
(	0.4784482759		0.275862069		0	)
(	0.4870689655		0.275862069		0	)
(	0.4956896552		0.275862069		0	)
(	0.5043103448		0.275862069		0	)
(	0.5129310345		0.275862069		0	)
(	0.5215517241		0.275862069		0	)
(	0.5301724138		0.275862069		0	)
(	0.5387931034		0.275862069		0	)
(	0.5474137931		0.275862069		0	)
(	0.5560344828		0.275862069		0	)
(	0.5646551724		0.275862069		0	)
(	0.5732758621		0.275862069		0	)
(	0.5818965517		0.275862069		0	)
(	0.5905172414		0.275862069		0	)
(	0.599137931		0.275862069		0	)
(	0.6077586207		0.275862069		0	)
(	0.6163793103		0.275862069		0	)
(	0.3836206897		0.2413793103		0	)
(	0.3922413793		0.2413793103		0	)
(	0.400862069		0.2413793103		0	)
(	0.4094827586		0.2413793103		0	)
(	0.4181034483		0.2413793103		0	)
(	0.4267241379		0.2413793103		0	)
(	0.4353448276		0.2413793103		0	)
(	0.4439655172		0.2413793103		0	)
(	0.4525862069		0.2413793103		0	)
(	0.4612068966		0.2413793103		0	)
(	0.4698275862		0.2413793103		0	)
(	0.4784482759		0.2413793103		0	)
(	0.4870689655		0.2413793103		0	)
(	0.4956896552		0.2413793103		0	)
(	0.5043103448		0.2413793103		0	)
(	0.5129310345		0.2413793103		0	)
(	0.5215517241		0.2413793103		0	)
(	0.5301724138		0.2413793103		0	)
(	0.5387931034		0.2413793103		0	)
(	0.5474137931		0.2413793103		0	)
(	0.5560344828		0.2413793103		0	)
(	0.5646551724		0.2413793103		0	)
(	0.5732758621		0.2413793103		0	)
(	0.5818965517		0.2413793103		0	)
(	0.5905172414		0.2413793103		0	)
(	0.599137931		0.2413793103		0	)
(	0.6077586207		0.2413793103		0	)
(	0.6163793103		0.2413793103		0	)
(	0.3836206897		0.2068965517		0	)
(	0.3922413793		0.2068965517		0	)
(	0.400862069		0.2068965517		0	)
(	0.4094827586		0.2068965517		0	)
(	0.4181034483		0.2068965517		0	)
(	0.4267241379		0.2068965517		0	)
(	0.4353448276		0.2068965517		0	)
(	0.4439655172		0.2068965517		0	)
(	0.4525862069		0.2068965517		0	)
(	0.4612068966		0.2068965517		0	)
(	0.4698275862		0.2068965517		0	)
(	0.4784482759		0.2068965517		0	)
(	0.4870689655		0.2068965517		0	)
(	0.4956896552		0.2068965517		0	)
(	0.5043103448		0.2068965517		0	)
(	0.5129310345		0.2068965517		0	)
(	0.5215517241		0.2068965517		0	)
(	0.5301724138		0.2068965517		0	)
(	0.5387931034		0.2068965517		0	)
(	0.5474137931		0.2068965517		0	)
(	0.5560344828		0.2068965517		0	)
(	0.5646551724		0.2068965517		0	)
(	0.5732758621		0.2068965517		0	)
(	0.5818965517		0.2068965517		0	)
(	0.5905172414		0.2068965517		0	)
(	0.599137931		0.2068965517		0	)
(	0.6077586207		0.2068965517		0	)
(	0.6163793103		0.2068965517		0	)
(	0.3836206897		0.1724137931		0	)
(	0.3922413793		0.1724137931		0	)
(	0.400862069		0.1724137931		0	)
(	0.4094827586		0.1724137931		0	)
(	0.4181034483		0.1724137931		0	)
(	0.4267241379		0.1724137931		0	)
(	0.4353448276		0.1724137931		0	)
(	0.4439655172		0.1724137931		0	)
(	0.4525862069		0.1724137931		0	)
(	0.4612068966		0.1724137931		0	)
(	0.4698275862		0.1724137931		0	)
(	0.4784482759		0.1724137931		0	)
(	0.4870689655		0.1724137931		0	)
(	0.4956896552		0.1724137931		0	)
(	0.5043103448		0.1724137931		0	)
(	0.5129310345		0.1724137931		0	)
(	0.5215517241		0.1724137931		0	)
(	0.5301724138		0.1724137931		0	)
(	0.5387931034		0.1724137931		0	)
(	0.5474137931		0.1724137931		0	)
(	0.5560344828		0.1724137931		0	)
(	0.5646551724		0.1724137931		0	)
(	0.5732758621		0.1724137931		0	)
(	0.5818965517		0.1724137931		0	)
(	0.5905172414		0.1724137931		0	)
(	0.599137931		0.1724137931		0	)
(	0.6077586207		0.1724137931		0	)
(	0.6163793103		0.1724137931		0	)
(	0.3836206897		0.1379310345		0	)
(	0.3922413793		0.1379310345		0	)
(	0.400862069		0.1379310345		0	)
(	0.4094827586		0.1379310345		0	)
(	0.4181034483		0.1379310345		0	)
(	0.4267241379		0.1379310345		0	)
(	0.4353448276		0.1379310345		0	)
(	0.4439655172		0.1379310345		0	)
(	0.4525862069		0.1379310345		0	)
(	0.4612068966		0.1379310345		0	)
(	0.4698275862		0.1379310345		0	)
(	0.4784482759		0.1379310345		0	)
(	0.4870689655		0.1379310345		0	)
(	0.4956896552		0.1379310345		0	)
(	0.5043103448		0.1379310345		0	)
(	0.5129310345		0.1379310345		0	)
(	0.5215517241		0.1379310345		0	)
(	0.5301724138		0.1379310345		0	)
(	0.5387931034		0.1379310345		0	)
(	0.5474137931		0.1379310345		0	)
(	0.5560344828		0.1379310345		0	)
(	0.5646551724		0.1379310345		0	)
(	0.5732758621		0.1379310345		0	)
(	0.5818965517		0.1379310345		0	)
(	0.5905172414		0.1379310345		0	)
(	0.599137931		0.1379310345		0	)
(	0.6077586207		0.1379310345		0	)
(	0.6163793103		0.1379310345		0	)
(	0.3836206897		0.1034482759		0	)
(	0.3922413793		0.1034482759		0	)
(	0.400862069		0.1034482759		0	)
(	0.4094827586		0.1034482759		0	)
(	0.4181034483		0.1034482759		0	)
(	0.4267241379		0.1034482759		0	)
(	0.4353448276		0.1034482759		0	)
(	0.4439655172		0.1034482759		0	)
(	0.4525862069		0.1034482759		0	)
(	0.4612068966		0.1034482759		0	)
(	0.4698275862		0.1034482759		0	)
(	0.4784482759		0.1034482759		0	)
(	0.4870689655		0.1034482759		0	)
(	0.4956896552		0.1034482759		0	)
(	0.5043103448		0.1034482759		0	)
(	0.5129310345		0.1034482759		0	)
(	0.5215517241		0.1034482759		0	)
(	0.5301724138		0.1034482759		0	)
(	0.5387931034		0.1034482759		0	)
(	0.5474137931		0.1034482759		0	)
(	0.5560344828		0.1034482759		0	)
(	0.5646551724		0.1034482759		0	)
(	0.5732758621		0.1034482759		0	)
(	0.5818965517		0.1034482759		0	)
(	0.5905172414		0.1034482759		0	)
(	0.599137931		0.1034482759		0	)
(	0.6077586207		0.1034482759		0	)
(	0.6163793103		0.1034482759		0	)
(	0.3836206897		0.0689655172		0	)
(	0.3922413793		0.0689655172		0	)
(	0.400862069		0.0689655172		0	)
(	0.4094827586		0.0689655172		0	)
(	0.4181034483		0.0689655172		0	)
(	0.4267241379		0.0689655172		0	)
(	0.4353448276		0.0689655172		0	)
(	0.4439655172		0.0689655172		0	)
(	0.4525862069		0.0689655172		0	)
(	0.4612068966		0.0689655172		0	)
(	0.4698275862		0.0689655172		0	)
(	0.4784482759		0.0689655172		0	)
(	0.4870689655		0.0689655172		0	)
(	0.4956896552		0.0689655172		0	)
(	0.5043103448		0.0689655172		0	)
(	0.5129310345		0.0689655172		0	)
(	0.5215517241		0.0689655172		0	)
(	0.5301724138		0.0689655172		0	)
(	0.5387931034		0.0689655172		0	)
(	0.5474137931		0.0689655172		0	)
(	0.5560344828		0.0689655172		0	)
(	0.5646551724		0.0689655172		0	)
(	0.5732758621		0.0689655172		0	)
(	0.5818965517		0.0689655172		0	)
(	0.5905172414		0.0689655172		0	)
(	0.599137931		0.0689655172		0	)
(	0.6077586207		0.0689655172		0	)
(	0.6163793103		0.0689655172		0	)
(	0.3836206897		0.0344827586		0	)
(	0.3922413793		0.0344827586		0	)
(	0.400862069		0.0344827586		0	)
(	0.4094827586		0.0344827586		0	)
(	0.4181034483		0.0344827586		0	)
(	0.4267241379		0.0344827586		0	)
(	0.4353448276		0.0344827586		0	)
(	0.4439655172		0.0344827586		0	)
(	0.4525862069		0.0344827586		0	)
(	0.4612068966		0.0344827586		0	)
(	0.4698275862		0.0344827586		0	)
(	0.4784482759		0.0344827586		0	)
(	0.4870689655		0.0344827586		0	)
(	0.4956896552		0.0344827586		0	)
(	0.5043103448		0.0344827586		0	)
(	0.5129310345		0.0344827586		0	)
(	0.5215517241		0.0344827586		0	)
(	0.5301724138		0.0344827586		0	)
(	0.5387931034		0.0344827586		0	)
(	0.5474137931		0.0344827586		0	)
(	0.5560344828		0.0344827586		0	)
(	0.5646551724		0.0344827586		0	)