/*--------------------------------*- C++ -*----------------------------------*\
| =========                 |                                                 |
| \\      /  F ield         | OpenFOAM: The Open Source CFD Toolbox           |
|  \\    /   O peration     | Version:  v1806                                 |
|   \\  /    A nd           | Web:      www.OpenFOAM.com                      |
|    \\/     M anipulation  |                                                 |
\*---------------------------------------------------------------------------*/
FoamFile
{
    version     2.0;
    format      ascii;
    class       vectorField;
    object      currentcloudofpoints;
}
// * * * * * * * * * * * * * * * * * * * * * * * * * * * * * * * * * * * * * //
1416(
 (	0.75		0.5		0	)
(	0.25		0.5		0	)
(	0.8125		0.5		0	)
(	0.1875		0.5		0	)
(	0.5		0.75		0	)
(	0.5		0.25		0	)
(	0.5		0.8125		0	)
(	0.5		0.1875		0	)
(	0.8123892535		0.5083189129		0	)
(	0.8120570924		0.5166319296		0	)
(	0.8115037522		0.524933158		0	)
(	0.8107296251		0.5332167143		0	)
(	0.8097352597		0.5414767273		0	)
(	0.8085213609		0.5497073425		0	)
(	0.8070887889		0.5579027263		0	)
(	0.8054385593		0.5660570699		0	)
(	0.8035718416		0.5741645937		0	)
(	0.801489959		0.5822195513		0	)
(	0.799194387		0.5902162335		0	)
(	0.7966867526		0.5981489725		0	)
(	0.7939688333		0.6060121457		0	)
(	0.7910425555		0.6138001798		0	)
(	0.7879099931		0.6215075548		0	)
(	0.7845733665		0.6291288081		0	)
(	0.7810350407		0.6366585376		0	)
(	0.7772975235		0.6440914067		0	)
(	0.7733634639		0.651422147		0	)
(	0.7692356504		0.6586455626		0	)
(	0.7649170087		0.6657565338		0	)
(	0.7604105997		0.6727500204		0	)
(	0.7557196175		0.6796210657		0	)
(	0.7508473869		0.6863647995		0	)
(	0.7457973612		0.6929764422		0	)
(	0.7405731198		0.6994513074		0	)
(	0.7351783656		0.705784806		0	)
(	0.7296169221		0.7119724488		0	)
(	0.7238927313		0.7180098504		0	)
(	0.7180098504		0.7238927313		0	)
(	0.7119724488		0.7296169221		0	)
(	0.705784806		0.7351783656		0	)
(	0.6994513074		0.7405731198		0	)
(	0.6929764422		0.7457973612		0	)
(	0.6863647995		0.7508473869		0	)
(	0.6796210657		0.7557196175		0	)
(	0.6727500204		0.7604105997		0	)
(	0.6657565338		0.7649170087		0	)
(	0.6586455626		0.7692356504		0	)
(	0.651422147		0.7733634639		0	)
(	0.6440914067		0.7772975235		0	)
(	0.6366585376		0.7810350407		0	)
(	0.6291288081		0.7845733665		0	)
(	0.6215075548		0.7879099931		0	)
(	0.6138001798		0.7910425555		0	)
(	0.6060121457		0.7939688333		0	)
(	0.5981489725		0.7966867526		0	)
(	0.5902162335		0.799194387		0	)
(	0.5822195513		0.801489959		0	)
(	0.5741645937		0.8035718416		0	)
(	0.5660570699		0.8054385593		0	)
(	0.5579027263		0.8070887889		0	)
(	0.5497073425		0.8085213609		0	)
(	0.5414767273		0.8097352597		0	)
(	0.5332167143		0.8107296251		0	)
(	0.524933158		0.8115037522		0	)
(	0.5166319296		0.8120570924		0	)
(	0.5083189129		0.8123892535		0	)
(	0.4916810871		0.8123892535		0	)
(	0.4833680704		0.8120570924		0	)
(	0.475066842		0.8115037522		0	)
(	0.4667832857		0.8107296251		0	)
(	0.4585232727		0.8097352597		0	)
(	0.4502926575		0.8085213609		0	)
(	0.4420972737		0.8070887889		0	)
(	0.4339429301		0.8054385593		0	)
(	0.4258354063		0.8035718416		0	)
(	0.4177804487		0.801489959		0	)
(	0.4097837665		0.799194387		0	)
(	0.4018510275		0.7966867526		0	)
(	0.3939878543		0.7939688333		0	)
(	0.3861998202		0.7910425555		0	)
(	0.3784924452		0.7879099931		0	)
(	0.3708711919		0.7845733665		0	)
(	0.3633414624		0.7810350407		0	)
(	0.3559085933		0.7772975235		0	)
(	0.348577853		0.7733634639		0	)
(	0.3413544374		0.7692356504		0	)
(	0.3342434662		0.7649170087		0	)
(	0.3272499796		0.7604105997		0	)
(	0.3203789343		0.7557196175		0	)
(	0.3136352005		0.7508473869		0	)
(	0.3070235578		0.7457973612		0	)
(	0.3005486926		0.7405731198		0	)
(	0.294215194		0.7351783656		0	)
(	0.2880275512		0.7296169221		0	)
(	0.2819901496		0.7238927313		0	)
(	0.2761072687		0.7180098504		0	)
(	0.2703830779		0.7119724488		0	)
(	0.2648216344		0.705784806		0	)
(	0.2594268802		0.6994513074		0	)
(	0.2542026388		0.6929764422		0	)
(	0.2491526131		0.6863647995		0	)
(	0.2442803825		0.6796210657		0	)
(	0.2395894003		0.6727500204		0	)
(	0.2350829913		0.6657565338		0	)
(	0.2307643496		0.6586455626		0	)
(	0.2266365361		0.651422147		0	)
(	0.2227024765		0.6440914067		0	)
(	0.2189649593		0.6366585376		0	)
(	0.2154266335		0.6291288081		0	)
(	0.2120900069		0.6215075548		0	)
(	0.2089574445		0.6138001798		0	)
(	0.2060311667		0.6060121457		0	)
(	0.2033132474		0.5981489725		0	)
(	0.200805613		0.5902162335		0	)
(	0.198510041		0.5822195513		0	)
(	0.1964281584		0.5741645937		0	)
(	0.1945614407		0.5660570699		0	)
(	0.1929112111		0.5579027263		0	)
(	0.1914786391		0.5497073425		0	)
(	0.1902647403		0.5414767273		0	)
(	0.1892703749		0.5332167143		0	)
(	0.1884962478		0.524933158		0	)
(	0.1879429076		0.5166319296		0	)
(	0.1876107465		0.5083189129		0	)
(	0.1876107465		0.4916810871		0	)
(	0.1879429076		0.4833680704		0	)
(	0.1884962478		0.475066842		0	)
(	0.1892703749		0.4667832857		0	)
(	0.1902647403		0.4585232727		0	)
(	0.1914786391		0.4502926575		0	)
(	0.1929112111		0.4420972737		0	)
(	0.1945614407		0.4339429301		0	)
(	0.1964281584		0.4258354063		0	)
(	0.198510041		0.4177804487		0	)
(	0.200805613		0.4097837665		0	)
(	0.2033132474		0.4018510275		0	)
(	0.2060311667		0.3939878543		0	)
(	0.2089574445		0.3861998202		0	)
(	0.2120900069		0.3784924452		0	)
(	0.2154266335		0.3708711919		0	)
(	0.2189649593		0.3633414624		0	)
(	0.2227024765		0.3559085933		0	)
(	0.2266365361		0.348577853		0	)
(	0.2307643496		0.3413544374		0	)
(	0.2350829913		0.3342434662		0	)
(	0.2395894003		0.3272499796		0	)
(	0.2442803825		0.3203789343		0	)
(	0.2491526131		0.3136352005		0	)
(	0.2542026388		0.3070235578		0	)
(	0.2594268802		0.3005486926		0	)
(	0.2648216344		0.294215194		0	)
(	0.2703830779		0.2880275512		0	)
(	0.2761072687		0.2819901496		0	)
(	0.2819901496		0.2761072687		0	)
(	0.2880275512		0.2703830779		0	)
(	0.294215194		0.2648216344		0	)
(	0.3005486926		0.2594268802		0	)
(	0.3070235578		0.2542026388		0	)
(	0.3136352005		0.2491526131		0	)
(	0.3203789343		0.2442803825		0	)
(	0.3272499796		0.2395894003		0	)
(	0.3342434662		0.2350829913		0	)
(	0.3413544374		0.2307643496		0	)
(	0.348577853		0.2266365361		0	)
(	0.3559085933		0.2227024765		0	)
(	0.3633414624		0.2189649593		0	)
(	0.3708711919		0.2154266335		0	)
(	0.3784924452		0.2120900069		0	)
(	0.3861998202		0.2089574445		0	)
(	0.3939878543		0.2060311667		0	)
(	0.4018510275		0.2033132474		0	)
(	0.4097837665		0.200805613		0	)
(	0.4177804487		0.198510041		0	)
(	0.4258354063		0.1964281584		0	)
(	0.4339429301		0.1945614407		0	)
(	0.4420972737		0.1929112111		0	)
(	0.4502926575		0.1914786391		0	)
(	0.4585232727		0.1902647403		0	)
(	0.4667832857		0.1892703749		0	)
(	0.475066842		0.1884962478		0	)
(	0.4833680704		0.1879429076		0	)
(	0.4916810871		0.1876107465		0	)
(	0.5083189129		0.1876107465		0	)
(	0.5166319296		0.1879429076		0	)
(	0.524933158		0.1884962478		0	)
(	0.5332167143		0.1892703749		0	)
(	0.5414767273		0.1902647403		0	)
(	0.5497073425		0.1914786391		0	)
(	0.5579027263		0.1929112111		0	)
(	0.5660570699		0.1945614407		0	)
(	0.5741645937		0.1964281584		0	)
(	0.5822195513		0.198510041		0	)
(	0.5902162335		0.200805613		0	)
(	0.5981489725		0.2033132474		0	)
(	0.6060121457		0.2060311667		0	)
(	0.6138001798		0.2089574445		0	)
(	0.6215075548		0.2120900069		0	)
(	0.6291288081		0.2154266335		0	)
(	0.6366585376		0.2189649593		0	)
(	0.6440914067		0.2227024765		0	)
(	0.651422147		0.2266365361		0	)
(	0.6586455626		0.2307643496		0	)
(	0.6657565338		0.2350829913		0	)
(	0.6727500204		0.2395894003		0	)
(	0.6796210657		0.2442803825		0	)
(	0.6863647995		0.2491526131		0	)
(	0.6929764422		0.2542026388		0	)
(	0.6994513074		0.2594268802		0	)
(	0.705784806		0.2648216344		0	)
(	0.7119724488		0.2703830779		0	)
(	0.7180098504		0.2761072687		0	)
(	0.7238927313		0.2819901496		0	)
(	0.7296169221		0.2880275512		0	)
(	0.7351783656		0.294215194		0	)
(	0.7405731198		0.3005486926		0	)
(	0.7457973612		0.3070235578		0	)
(	0.7508473869		0.3136352005		0	)
(	0.7557196175		0.3203789343		0	)
(	0.7604105997		0.3272499796		0	)
(	0.7649170087		0.3342434662		0	)
(	0.7692356504		0.3413544374		0	)
(	0.7733634639		0.348577853		0	)
(	0.7772975235		0.3559085933		0	)
(	0.7810350407		0.3633414624		0	)
(	0.7845733665		0.3708711919		0	)
(	0.7879099931		0.3784924452		0	)
(	0.7910425555		0.3861998202		0	)
(	0.7939688333		0.3939878543		0	)
(	0.7966867526		0.4018510275		0	)
(	0.799194387		0.4097837665		0	)
(	0.801489959		0.4177804487		0	)
(	0.8035718416		0.4258354063		0	)
(	0.8054385593		0.4339429301		0	)
(	0.8070887889		0.4420972737		0	)
(	0.8085213609		0.4502926575		0	)
(	0.8097352597		0.4585232727		0	)
(	0.8107296251		0.4667832857		0	)
(	0.8115037522		0.475066842		0	)
(	0.8120570924		0.4833680704		0	)
(	0.8123892535		0.4916810871		0	)
(	0.7499114028		0.5066551304		0	)
(	0.7496456739		0.5133055437		0	)
(	0.7492030018		0.5199465264		0	)
(	0.7485837001		0.5265733714		0	)
(	0.7477882078		0.5331813818		0	)
(	0.7468170887		0.539765874		0	)
(	0.7456710311		0.546322181		0	)
(	0.7443508475		0.5528456559		0	)
(	0.7428574733		0.559331675		0	)
(	0.7411919672		0.5657756411		0	)
(	0.7393555096		0.5721729868		0	)
(	0.7373494021		0.578519178		0	)
(	0.7351750667		0.5848097165		0	)
(	0.7328340444		0.5910401438		0	)
(	0.7303279945		0.5972060439		0	)
(	0.7276586932		0.6033030464		0	)
(	0.7248280325		0.6093268301		0	)
(	0.7218380188		0.6152731254		0	)
(	0.7186907711		0.6211377176		0	)
(	0.7153885203		0.6269164501		0	)
(	0.711933607		0.632605227		0	)
(	0.7083284798		0.6382000163		0	)
(	0.704575694		0.6436968526		0	)
(	0.7006779095		0.6490918396		0	)
(	0.696637889		0.6543811537		0	)
(	0.6924584959		0.6595610459		0	)
(	0.6881426925		0.6646278448		0	)
(	0.6836935377		0.6695779591		0	)
(	0.6791141851		0.6744078803		0	)
(	0.6744078803		0.6791141851		0	)
(	0.6695779591		0.6836935377		0	)
(	0.6646278448		0.6881426925		0	)
(	0.6595610459		0.6924584959		0	)
(	0.6543811537		0.696637889		0	)
(	0.6490918396		0.7006779095		0	)
(	0.6436968526		0.704575694		0	)
(	0.6382000163		0.7083284798		0	)
(	0.632605227		0.711933607		0	)
(	0.6269164501		0.7153885203		0	)
(	0.6211377176		0.7186907711		0	)
(	0.6152731254		0.7218380188		0	)
(	0.6093268301		0.7248280325		0	)
(	0.6033030464		0.7276586932		0	)
(	0.5972060439		0.7303279945		0	)
(	0.5910401438		0.7328340444		0	)
(	0.5848097165		0.7351750667		0	)
(	0.578519178		0.7373494021		0	)
(	0.5721729868		0.7393555096		0	)
(	0.5657756411		0.7411919672		0	)
(	0.559331675		0.7428574733		0	)
(	0.5528456559		0.7443508475		0	)
(	0.546322181		0.7456710311		0	)
(	0.539765874		0.7468170887		0	)
(	0.5331813818		0.7477882078		0	)
(	0.5265733714		0.7485837001		0	)
(	0.5199465264		0.7492030018		0	)
(	0.5133055437		0.7496456739		0	)
(	0.5066551304		0.7499114028		0	)
(	0.4933448696		0.7499114028		0	)
(	0.4866944563		0.7496456739		0	)
(	0.4800534736		0.7492030018		0	)
(	0.4734266286		0.7485837001		0	)
(	0.4668186182		0.7477882078		0	)
(	0.460234126		0.7468170887		0	)
(	0.453677819		0.7456710311		0	)
(	0.4471543441		0.7443508475		0	)
(	0.440668325		0.7428574733		0	)
(	0.4342243589		0.7411919672		0	)
(	0.4278270132		0.7393555096		0	)
(	0.421480822		0.7373494021		0	)
(	0.4151902835		0.7351750667		0	)
(	0.4089598562		0.7328340444		0	)
(	0.4027939561		0.7303279945		0	)
(	0.3966969536		0.7276586932		0	)
(	0.3906731699		0.7248280325		0	)
(	0.3847268746		0.7218380188		0	)
(	0.3788622824		0.7186907711		0	)
(	0.3730835499		0.7153885203		0	)
(	0.367394773		0.711933607		0	)
(	0.3617999837		0.7083284798		0	)
(	0.3563031474		0.704575694		0	)
(	0.3509081604		0.7006779095		0	)
(	0.3456188463		0.696637889		0	)
(	0.3404389541		0.6924584959		0	)
(	0.3353721552		0.6881426925		0	)
(	0.3304220409		0.6836935377		0	)
(	0.3255921197		0.6791141851		0	)
(	0.3208858149		0.6744078803		0	)
(	0.3163064623		0.6695779591		0	)
(	0.3118573075		0.6646278448		0	)
(	0.3075415041		0.6595610459		0	)
(	0.303362111		0.6543811537		0	)
(	0.2993220905		0.6490918396		0	)
(	0.295424306		0.6436968526		0	)
(	0.2916715202		0.6382000163		0	)
(	0.288066393		0.632605227		0	)
(	0.2846114797		0.6269164501		0	)
(	0.2813092289		0.6211377176		0	)
(	0.2781619812		0.6152731254		0	)
(	0.2751719675		0.6093268301		0	)
(	0.2723413068		0.6033030464		0	)
(	0.2696720055		0.5972060439		0	)
(	0.2671659556		0.5910401438		0	)
(	0.2648249333		0.5848097165		0	)
(	0.2626505979		0.578519178		0	)
(	0.2606444904		0.5721729868		0	)
(	0.2588080328		0.5657756411		0	)
(	0.2571425267		0.559331675		0	)
(	0.2556491525		0.5528456559		0	)
(	0.2543289689		0.546322181		0	)
(	0.2531829113		0.539765874		0	)
(	0.2522117922		0.5331813818		0	)
(	0.2514162999		0.5265733714		0	)
(	0.2507969982		0.5199465264		0	)
(	0.2503543261		0.5133055437		0	)
(	0.2500885972		0.5066551304		0	)
(	0.2500885972		0.4933448696		0	)
(	0.2503543261		0.4866944563		0	)
(	0.2507969982		0.4800534736		0	)
(	0.2514162999		0.4734266286		0	)
(	0.2522117922		0.4668186182		0	)
(	0.2531829113		0.460234126		0	)
(	0.2543289689		0.453677819		0	)
(	0.2556491525		0.4471543441		0	)
(	0.2571425267		0.440668325		0	)
(	0.2588080328		0.4342243589		0	)
(	0.2606444904		0.4278270132		0	)
(	0.2626505979		0.421480822		0	)
(	0.2648249333		0.4151902835		0	)
(	0.2671659556		0.4089598562		0	)
(	0.2696720055		0.4027939561		0	)
(	0.2723413068		0.3966969536		0	)
(	0.2751719675		0.3906731699		0	)
(	0.2781619812		0.3847268746		0	)
(	0.2813092289		0.3788622824		0	)
(	0.2846114797		0.3730835499		0	)
(	0.288066393		0.367394773		0	)
(	0.2916715202		0.3617999837		0	)
(	0.295424306		0.3563031474		0	)
(	0.2993220905		0.3509081604		0	)
(	0.303362111		0.3456188463		0	)
(	0.3075415041		0.3404389541		0	)
(	0.3118573075		0.3353721552		0	)
(	0.3163064623		0.3304220409		0	)
(	0.3208858149		0.3255921197		0	)
(	0.3255921197		0.3208858149		0	)
(	0.3304220409		0.3163064623		0	)
(	0.3353721552		0.3118573075		0	)
(	0.3404389541		0.3075415041		0	)
(	0.3456188463		0.303362111		0	)
(	0.3509081604		0.2993220905		0	)
(	0.3563031474		0.295424306		0	)
(	0.3617999837		0.2916715202		0	)
(	0.367394773		0.288066393		0	)
(	0.3730835499		0.2846114797		0	)
(	0.3788622824		0.2813092289		0	)
(	0.3847268746		0.2781619812		0	)
(	0.3906731699		0.2751719675		0	)
(	0.3966969536		0.2723413068		0	)
(	0.4027939561		0.2696720055		0	)
(	0.4089598562		0.2671659556		0	)
(	0.4151902835		0.2648249333		0	)
(	0.421480822		0.2626505979		0	)
(	0.4278270132		0.2606444904		0	)
(	0.4342243589		0.2588080328		0	)
(	0.440668325		0.2571425267		0	)
(	0.4471543441		0.2556491525		0	)
(	0.453677819		0.2543289689		0	)
(	0.460234126		0.2531829113		0	)
(	0.4668186182		0.2522117922		0	)
(	0.4734266286		0.2514162999		0	)
(	0.4800534736		0.2507969982		0	)
(	0.4866944563		0.2503543261		0	)
(	0.4933448696		0.2500885972		0	)
(	0.5066551304		0.2500885972		0	)
(	0.5133055437		0.2503543261		0	)
(	0.5199465264		0.2507969982		0	)
(	0.5265733714		0.2514162999		0	)
(	0.5331813818		0.2522117922		0	)
(	0.539765874		0.2531829113		0	)
(	0.546322181		0.2543289689		0	)
(	0.5528456559		0.2556491525		0	)
(	0.559331675		0.2571425267		0	)
(	0.5657756411		0.2588080328		0	)
(	0.5721729868		0.2606444904		0	)
(	0.578519178		0.2626505979		0	)
(	0.5848097165		0.2648249333		0	)
(	0.5910401438		0.2671659556		0	)
(	0.5972060439		0.2696720055		0	)
(	0.6033030464		0.2723413068		0	)
(	0.6093268301		0.2751719675		0	)
(	0.6152731254		0.2781619812		0	)
(	0.6211377176		0.2813092289		0	)
(	0.6269164501		0.2846114797		0	)
(	0.632605227		0.288066393		0	)
(	0.6382000163		0.2916715202		0	)
(	0.6436968526		0.295424306		0	)
(	0.6490918396		0.2993220905		0	)
(	0.6543811537		0.303362111		0	)
(	0.6595610459		0.3075415041		0	)
(	0.6646278448		0.3118573075		0	)
(	0.6695779591		0.3163064623		0	)
(	0.6744078803		0.3208858149		0	)
(	0.6791141851		0.3255921197		0	)
(	0.6836935377		0.3304220409		0	)
(	0.6881426925		0.3353721552		0	)
(	0.6924584959		0.3404389541		0	)
(	0.696637889		0.3456188463		0	)
(	0.7006779095		0.3509081604		0	)
(	0.704575694		0.3563031474		0	)
(	0.7083284798		0.3617999837		0	)
(	0.711933607		0.367394773		0	)
(	0.7153885203		0.3730835499		0	)
(	0.7186907711		0.3788622824		0	)
(	0.7218380188		0.3847268746		0	)
(	0.7248280325		0.3906731699		0	)
(	0.7276586932		0.3966969536		0	)
(	0.7303279945		0.4027939561		0	)
(	0.7328340444		0.4089598562		0	)
(	0.7351750667		0.4151902835		0	)
(	0.7373494021		0.421480822		0	)
(	0.7393555096		0.4278270132		0	)
(	0.7411919672		0.4342243589		0	)
(	0.7428574733		0.440668325		0	)
(	0.7443508475		0.4471543441		0	)
(	0.7456710311		0.453677819		0	)
(	0.7468170887		0.460234126		0	)
(	0.7477882078		0.4668186182		0	)
(	0.7485837001		0.4734266286		0	)
(	0.7492030018		0.4800534736		0	)
(	0.7496456739		0.4866944563		0	)
(	0.7499114028		0.4933448696		0	)
(	0.5		0.8		0	)
(	0.5		0.7875		0	)
(	0.5		0.775		0	)
(	0.5		0.7625		0	)
(	0.7625		0.5		0	)
(	0.775		0.5		0	)
(	0.7875		0.5		0	)
(	0.8		0.5		0	)
(	0.5		0.2375		0	)
(	0.5		0.225		0	)
(	0.5		0.2125		0	)
(	0.5		0.2		0	)
(	0.2375		0.5		0	)
(	0.225		0.5		0	)
(	0.2125		0.5		0	)
(	0.2		0.5		0	)
(	0.4920138436		0.7998936833		0	)
(	0.4923466001		0.7873981132		0	)
(	0.4926793566		0.7749025431		0	)
(	0.4930121131		0.7624069729		0	)
(	0.4840333475		0.7995748087		0	)
(	0.4846986247		0.787092525		0	)
(	0.4853639019		0.7746102413		0	)
(	0.4860291791		0.7621279576		0	)
(	0.4760641683		0.7990436021		0	)
(	0.4770614947		0.786583452		0	)
(	0.478058821		0.7741233019		0	)
(	0.4790561473		0.7616631518		0	)
(	0.4681119543		0.7983004401		0	)
(	0.4694406229		0.7858712551		0	)
(	0.4707692914		0.7734420701		0	)
(	0.47209796		0.7610128851		0	)
(	0.4601823418		0.7973458493		0	)
(	0.4618414109		0.7849564389		0	)
(	0.46350048		0.7725670285		0	)
(	0.4651595491		0.7601776181		0	)
(	0.4522809512		0.7961805064		0	)
(	0.4542692449		0.783839652		0	)
(	0.4562575386		0.7714987975		0	)
(	0.4582458323		0.7591579431		0	)
(	0.4444133828		0.7948052374		0	)
(	0.4467294918		0.7825216858		0	)
(	0.4490456009		0.7702381343		0	)
(	0.4513617099		0.7579545827		0	)
(	0.4365852129		0.7932210169		0	)
(	0.4392274957		0.7810034746		0	)
(	0.4418697785		0.7687859322		0	)
(	0.4445120613		0.7565683898		0	)
(	0.42880199		0.791428968		0	)
(	0.4317685738		0.7792860943		0	)
(	0.4347351575		0.7671432206		0	)
(	0.4377017413		0.755000347		0	)
(	0.4210692307		0.7894303606		0	)
(	0.4243580128		0.7773707623		0	)
(	0.4276467948		0.7653111639		0	)
(	0.4309355769		0.7532515656		0	)
(	0.4133924158		0.7872266115		0	)
(	0.4170010651		0.775258836		0	)
(	0.4206097145		0.7632910605		0	)
(	0.4242183638		0.7513232851		0	)
(	0.4057769864		0.7848192825		0	)
(	0.4097029453		0.7729518124		0	)
(	0.4136289042		0.7610843423		0	)
(	0.4175548631		0.7492168722		0	)
(	0.3982283402		0.78221008		0	)
(	0.402468826		0.7704513267		0	)
(	0.4067093118		0.7586925733		0	)
(	0.4109497976		0.74693382		0	)
(	0.3907518274		0.7794008532		0	)
(	0.3953038346		0.767759151		0	)
(	0.3998558418		0.7561174488		0	)
(	0.404407849		0.7444757466		0	)
(	0.3833527474		0.7763935934		0	)
(	0.3882130496		0.7648771936		0	)
(	0.3930733517		0.7533607939		0	)
(	0.3979336539		0.7418443942		0	)
(	0.3760363443		0.7731904319		0	)
(	0.3812014966		0.7618074972		0	)
(	0.3863666489		0.7504245625		0	)
(	0.3915318012		0.7390416279		0	)
(	0.3688078039		0.7697936391		0	)
(	0.3742741454		0.7585522374		0	)
(	0.3797404869		0.7473108358		0	)
(	0.3852068284		0.7360694342		0	)
(	0.3616722496		0.7662056225		0	)
(	0.3674359058		0.7551137216		0	)
(	0.3731995621		0.7440218206		0	)
(	0.3789632184		0.7329299197		0	)
(	0.3546347389		0.7624289254		0	)
(	0.3606916248		0.7514943868		0	)
(	0.3667485107		0.7405598482		0	)
(	0.3728053965		0.7296253097		0	)
(	0.3477002599		0.7584662244		0	)
(	0.3540460824		0.7476967984		0	)
(	0.3603919049		0.7369273724		0	)
(	0.3667377274		0.7261579464		0	)
(	0.3408737276		0.7543203284		0	)
(	0.3475039889		0.743723648		0	)
(	0.3541342503		0.7331269677		0	)
(	0.3607645116		0.7225302873		0	)
(	0.3341599804		0.7499941757		0	)
(	0.3410699812		0.7395777517		0	)
(	0.347979982		0.7291613277		0	)
(	0.3548899828		0.7187449038		0	)
(	0.3275637769		0.7454908328		0	)
(	0.3347486196		0.7352620481		0	)
(	0.3419334622		0.7250332634		0	)
(	0.3491183048		0.7148044787		0	)
(	0.3210897924		0.7408134914		0	)
(	0.3285443844		0.7307795959		0	)
(	0.3359989764		0.7207457004		0	)
(	0.3434535684		0.710711805		0	)
(	0.3147426155		0.7359654667		0	)
(	0.3224616732		0.7261335723		0	)
(	0.3301807309		0.7163016778		0	)
(	0.3378997886		0.7064697834		0	)
(	0.3085267449		0.730950195		0	)
(	0.3165047972		0.7213272702		0	)
(	0.3244828495		0.7117043454		0	)
(	0.3324609018		0.7020814207		0	)
(	0.3024465863		0.725771231		0	)
(	0.3106779785		0.7163640963		0	)
(	0.3189093708		0.7069569617		0	)
(	0.327140763		0.6975498271		0	)
(	0.2965064491		0.7204322453		0	)
(	0.3049853471		0.7112475684		0	)
(	0.313464245		0.7020628915		0	)
(	0.321943143		0.6928782146		0	)
(	0.2907105437		0.7149370221		0	)
(	0.2994309377		0.7059813128		0	)
(	0.3081513317		0.6970256036		0	)
(	0.3168717257		0.6880698943		0	)
(	0.2850629779		0.7092894563		0	)
(	0.2940186872		0.7005690623		0	)
(	0.3029743964		0.6918486683		0	)
(	0.3119301057		0.6831282743		0	)
(	0.2795677547		0.7034935509		0	)
(	0.2887524316		0.6950146529		0	)
(	0.2979371085		0.686535755		0	)
(	0.3071217854		0.678056857		0	)
(	0.274228769		0.6975534137		0	)
(	0.2836359037		0.6893220215		0	)
(	0.2930430383		0.6810906292		0	)
(	0.3024501729		0.672859237		0	)
(	0.269049805		0.6914732551		0	)
(	0.2786727298		0.6834952028		0	)
(	0.2882956546		0.6755171505		0	)
(	0.2979185793		0.6675390982		0	)
(	0.2640345333		0.6852573845		0	)
(	0.2738664277		0.6775383268		0	)
(	0.2836983222		0.6698192691		0	)
(	0.2935302166		0.6621002114		0	)
(	0.2591865086		0.6789102076		0	)
(	0.2692204041		0.6714556156		0	)
(	0.2792542996		0.6640010236		0	)
(	0.289288195		0.6565464316		0	)
(	0.2545091672		0.6724362231		0	)
(	0.2647379519		0.6652513804		0	)
(	0.2749667366		0.6580665378		0	)
(	0.2851955213		0.6508816952		0	)
(	0.2500058243		0.6658400196		0	)
(	0.2604222483		0.6589300188		0	)
(	0.2708386723		0.652020018		0	)
(	0.2812550962		0.6451100172		0	)
(	0.2456796716		0.6591262724		0	)
(	0.256276352		0.6524960111		0	)
(	0.2668730323		0.6458657497		0	)
(	0.2774697127		0.6392354884		0	)
(	0.2415337756		0.6522997401		0	)
(	0.2523032016		0.6459539176		0	)
(	0.2630726276		0.6396080951		0	)
(	0.2738420536		0.6332622726		0	)
(	0.2375710746		0.6453652611		0	)
(	0.2485056132		0.6393083752		0	)
(	0.2594401518		0.6332514893		0	)
(	0.2703746903		0.6271946035		0	)
(	0.2337943775		0.6383277504		0	)
(	0.2448862784		0.6325640942		0	)
(	0.2559781794		0.6268004379		0	)
(	0.2670700803		0.6210367816		0	)
(	0.2302063609		0.6311921961		0	)
(	0.2414477626		0.6257258546		0	)
(	0.2526891642		0.6202595131		0	)
(	0.2639305658		0.6147931716		0	)
(	0.2268095681		0.6239636557		0	)
(	0.2381925028		0.6187985034		0	)
(	0.2495754375		0.6136333511		0	)
(	0.2609583721		0.6084681988		0	)
(	0.2236064066		0.6166472526		0	)
(	0.2351228064		0.6117869504		0	)
(	0.2466392061		0.6069266483		0	)
(	0.2581556058		0.6020663461		0	)
(	0.2205991468		0.6092481726		0	)
(	0.232240849		0.6046961654		0	)
(	0.2438825512		0.6001441582		0	)
(	0.2555242534		0.595592151		0	)
(	0.21778992		0.6017716598		0	)
(	0.2295486733		0.597531174		0	)
(	0.2413074267		0.5932906882		0	)
(	0.25306618		0.5890502024		0	)
(	0.2151807175		0.5942230136		0	)
(	0.2270481876		0.5902970547		0	)
(	0.2389156577		0.5863710958		0	)
(	0.2507831278		0.5824451369		0	)
(	0.2127733885		0.5866075842		0	)
(	0.224741164		0.5829989349		0	)
(	0.2367089395		0.5793902855		0	)
(	0.2486767149		0.5757816362		0	)
(	0.2105696394		0.5789307693		0	)
(	0.2226292377		0.5756419872		0	)
(	0.2346888361		0.5723532052		0	)
(	0.2467484344		0.5690644231		0	)
(	0.208571032		0.57119801		0	)
(	0.2207139057		0.5682314262		0	)
(	0.2328567794		0.5652648425		0	)
(	0.244999653		0.5622982587		0	)
(	0.2067789831		0.5634147871		0	)
(	0.2189965254		0.5607725043		0	)
(	0.2312140678		0.5581302215		0	)
(	0.2434316102		0.5554879387		0	)
(	0.2051947626		0.5555866172		0	)
(	0.2174783142		0.5532705082		0	)
(	0.2297618657		0.5509543991		0	)
(	0.2420454173		0.5486382901		0	)
(	0.2038194936		0.5477190488		0	)
(	0.216160348		0.5457307551		0	)
(	0.2285012025		0.5437424614		0	)
(	0.2408420569		0.5417541677		0	)
(	0.2026541507		0.5398176582		0	)
(	0.2150435611		0.5381585891		0	)
(	0.2274329715		0.53649952		0	)
(	0.2398223819		0.5348404509		0	)
(	0.2016995599		0.5318880457		0	)
(	0.2141287449		0.5305593771		0	)
(	0.2265579299		0.5292307086		0	)
(	0.2389871149		0.52790204		0	)
(	0.2009563979		0.5239358317		0	)
(	0.213416548		0.5229385053		0	)
(	0.2258766981		0.521941179		0	)
(	0.2383368482		0.5209438527		0	)
(	0.2004251913		0.5159666525		0	)
(	0.212907475		0.5153013753		0	)
(	0.2253897587		0.5146360981		0	)
(	0.2378720424		0.5139708209		0	)
(	0.2001063167		0.5079861564		0	)
(	0.2126018868		0.5076533999		0	)
(	0.2250974569		0.5073206434		0	)
(	0.2375930271		0.5069878869		0	)
(	0.2375930271		0.4930121131		0	)
(	0.2378720424		0.4860291791		0	)
(	0.2383368482		0.4790561473		0	)
(	0.2389871149		0.47209796		0	)
(	0.2398223819		0.4651595491		0	)
(	0.2408420569		0.4582458323		0	)
(	0.2420454173		0.4513617099		0	)
(	0.2434316102		0.4445120613		0	)
(	0.244999653		0.4377017413		0	)
(	0.2467484344		0.4309355769		0	)
(	0.2486767149		0.4242183638		0	)
(	0.2507831278		0.4175548631		0	)
(	0.25306618		0.4109497976		0	)
(	0.2555242534		0.404407849		0	)
(	0.2581556058		0.3979336539		0	)
(	0.2609583721		0.3915318012		0	)
(	0.2639305658		0.3852068284		0	)
(	0.2670700803		0.3789632184		0	)
(	0.2703746903		0.3728053965		0	)
(	0.2738420536		0.3667377274		0	)
(	0.2774697127		0.3607645116		0	)
(	0.2812550962		0.3548899828		0	)
(	0.2851955213		0.3491183048		0	)
(	0.289288195		0.3434535684		0	)
(	0.2935302166		0.3378997886		0	)
(	0.2979185793		0.3324609018		0	)
(	0.3024501729		0.327140763		0	)
(	0.3071217854		0.321943143		0	)
(	0.3119301057		0.3168717257		0	)
(	0.3168717257		0.3119301057		0	)
(	0.321943143		0.3071217854		0	)
(	0.327140763		0.3024501729		0	)
(	0.3324609018		0.2979185793		0	)
(	0.3378997886		0.2935302166		0	)
(	0.3434535684		0.289288195		0	)
(	0.3491183048		0.2851955213		0	)
(	0.3548899828		0.2812550962		0	)
(	0.3607645116		0.2774697127		0	)
(	0.3667377274		0.2738420536		0	)
(	0.3728053965		0.2703746903		0	)
(	0.3789632184		0.2670700803		0	)
(	0.3852068284		0.2639305658		0	)
(	0.3915318012		0.2609583721		0	)
(	0.3979336539		0.2581556058		0	)
(	0.404407849		0.2555242534		0	)
(	0.4109497976		0.25306618		0	)
(	0.4175548631		0.2507831278		0	)
(	0.4242183638		0.2486767149		0	)
(	0.4309355769		0.2467484344		0	)
(	0.4377017413		0.244999653		0	)
(	0.4445120613		0.2434316102		0	)
(	0.4513617099		0.2420454173		0	)
(	0.4582458323		0.2408420569		0	)
(	0.4651595491		0.2398223819		0	)
(	0.47209796		0.2389871149		0	)
(	0.4790561473		0.2383368482		0	)
(	0.4860291791		0.2378720424		0	)
(	0.4930121131		0.2375930271		0	)
(	0.2250974569		0.4926793566		0	)
(	0.2253897587		0.4853639019		0	)
(	0.2258766981		0.478058821		0	)
(	0.2265579299		0.4707692914		0	)
(	0.2274329715		0.46350048		0	)
(	0.2285012025		0.4562575386		0	)
(	0.2297618657		0.4490456009		0	)
(	0.2312140678		0.4418697785		0	)
(	0.2328567794		0.4347351575		0	)
(	0.2346888361		0.4276467948		0	)
(	0.2367089395		0.4206097145		0	)
(	0.2389156577		0.4136289042		0	)
(	0.2413074267		0.4067093118		0	)
(	0.2438825512		0.3998558418		0	)
(	0.2466392061		0.3930733517		0	)
(	0.2495754375		0.3863666489		0	)
(	0.2526891642		0.3797404869		0	)
(	0.2559781794		0.3731995621		0	)
(	0.2594401518		0.3667485107		0	)
(	0.2630726276		0.3603919049		0	)
(	0.2668730323		0.3541342503		0	)
(	0.2708386723		0.347979982		0	)
(	0.2749667366		0.3419334622		0	)
(	0.2792542996		0.3359989764		0	)
(	0.2836983222		0.3301807309		0	)
(	0.2882956546		0.3244828495		0	)
(	0.2930430383		0.3189093708		0	)
(	0.2979371085		0.313464245		0	)
(	0.3029743964		0.3081513317		0	)
(	0.3081513317		0.3029743964		0	)
(	0.313464245		0.2979371085		0	)
(	0.3189093708		0.2930430383		0	)
(	0.3244828495		0.2882956546		0	)
(	0.3301807309		0.2836983222		0	)
(	0.3359989764		0.2792542996		0	)
(	0.3419334622		0.2749667366		0	)
(	0.347979982		0.2708386723		0	)
(	0.3541342503		0.2668730323		0	)
(	0.3603919049		0.2630726276		0	)
(	0.3667485107		0.2594401518		0	)
(	0.3731995621		0.2559781794		0	)
(	0.3797404869		0.2526891642		0	)
(	0.3863666489		0.2495754375		0	)
(	0.3930733517		0.2466392061		0	)
(	0.3998558418		0.2438825512		0	)
(	0.4067093118		0.2413074267		0	)
(	0.4136289042		0.2389156577		0	)
(	0.4206097145		0.2367089395		0	)
(	0.4276467948		0.2346888361		0	)
(	0.4347351575		0.2328567794		0	)
(	0.4418697785		0.2312140678		0	)
(	0.4490456009		0.2297618657		0	)
(	0.4562575386		0.2285012025		0	)
(	0.46350048		0.2274329715		0	)
(	0.4707692914		0.2265579299		0	)
(	0.478058821		0.2258766981		0	)
(	0.4853639019		0.2253897587		0	)
(	0.4926793566		0.2250974569		0	)
(	0.2126018868		0.4923466001		0	)
(	0.212907475		0.4846986247		0	)
(	0.213416548		0.4770614947		0	)
(	0.2141287449		0.4694406229		0	)
(	0.2150435611		0.4618414109		0	)
(	0.216160348		0.4542692449		0	)
(	0.2174783142		0.4467294918		0	)
(	0.2189965254		0.4392274957		0	)
(	0.2207139057		0.4317685738		0	)
(	0.2226292377		0.4243580128		0	)
(	0.224741164		0.4170010651		0	)
(	0.2270481876		0.4097029453		0	)
(	0.2295486733		0.402468826		0	)
(	0.232240849		0.3953038346		0	)
(	0.2351228064		0.3882130496		0	)
(	0.2381925028		0.3812014966		0	)
(	0.2414477626		0.3742741454		0	)
(	0.2448862784		0.3674359058		0	)
(	0.2485056132		0.3606916248		0	)
(	0.2523032016		0.3540460824		0	)
(	0.256276352		0.3475039889		0	)
(	0.2604222483		0.3410699812		0	)
(	0.2647379519		0.3347486196		0	)
(	0.2692204041		0.3285443844		0	)
(	0.2738664277		0.3224616732		0	)
(	0.2786727298		0.3165047972		0	)
(	0.2836359037		0.3106779785		0	)
(	0.2887524316		0.3049853471		0	)
(	0.2940186872		0.2994309377		0	)
(	0.2994309377		0.2940186872		0	)
(	0.3049853471		0.2887524316		0	)
(	0.3106779785		0.2836359037		0	)
(	0.3165047972		0.2786727298		0	)
(	0.3224616732		0.2738664277		0	)
(	0.3285443844		0.2692204041		0	)
(	0.3347486196		0.2647379519		0	)
(	0.3410699812		0.2604222483		0	)
(	0.3475039889		0.256276352		0	)
(	0.3540460824		0.2523032016		0	)
(	0.3606916248		0.2485056132		0	)