/*--------------------------------*- C++ -*----------------------------------*\
| =========                 |                                                 |
| \\      /  F ield         | OpenFOAM: The Open Source CFD Toolbox           |
|  \\    /   O peration     | Version:  v1806                                 |
|   \\  /    A nd           | Web:      www.OpenFOAM.com                      |
|    \\/     M anipulation  |                                                 |
\*---------------------------------------------------------------------------*/
FoamFile
{
    version     2.0;
    format      ascii;
    class       polyBoundaryMesh;
    location    "constant/polyMesh";
    object      boundary;
}
// * * * * * * * * * * * * * * * * * * * * * * * * * * * * * * * * * * * * * //

5
(
    left
    {
        type            cyclic;
        inGroups        1(cyclic);
        nFaces          64;
        startFace       8064;
        matchTolerance  0.0001;
        transform       unknown;
        neighbourPatch  right;
    }
    right
    {
        type            cyclic;
        inGroups        1(cyclic);
        nFaces          64;
        startFace       8128;
        matchTolerance  0.0001;
        transform       unknown;
        neighbourPatch  left;
    }
    top
    {
        type            cyclic;
        inGroups        1(cyclic);
        nFaces          64;
        startFace       8192;
        matchTolerance  0.0001;
        transform       unknown;
        neighbourPatch  bottom;
    }
    bottom
    {
        type            cyclic;
        inGroups        1(cyclic);
        nFaces          64;
        startFace       8256;
        matchTolerance  0.0001;
        transform       unknown;
        neighbourPatch  top;
    }
    frontAndBack
    {
        type            empty;
        inGroups        1(empty);
        nFaces          8192;
        startFace       8320;
    }
)

// ************************************************************************* //
