/*--------------------------------*- C++ -*----------------------------------*\
| =========                 |                                                 |
| \\      /  F ield         | OpenFOAM: The Open Source CFD Toolbox           |
|  \\    /   O peration     | Version:  v1806                                 |
|   \\  /    A nd           | Web:      www.OpenFOAM.com                      |
|    \\/     M anipulation  |                                                 |
\*---------------------------------------------------------------------------*/
FoamFile
{
    version     2.0;
    format      ascii;
    class       vectorField;
    location    "constant";
    object      cloud_of_points;
}
// * * * * * * * * * * * * * * * * * * * * * * * * * * * * * * * * * * * * * //


1416
(
(0.75 0.5 0)
(0.25 0.5 0)
(0.8125 0.5 0)
(0.1875 0.5 0)
(0.5 0.75 0)
(0.5 0.25 0)
(0.5 0.8125 0)
(0.5 0.1875 0)
(0.812389 0.508319 0)
(0.812057 0.516632 0)
(0.811504 0.524933 0)
(0.81073 0.533217 0)
(0.809735 0.541477 0)
(0.808521 0.549707 0)
(0.807089 0.557903 0)
(0.805439 0.566057 0)
(0.803572 0.574165 0)
(0.80149 0.58222 0)
(0.799194 0.590216 0)
(0.796687 0.598149 0)
(0.793969 0.606012 0)
(0.791043 0.6138 0)
(0.78791 0.621508 0)
(0.784573 0.629129 0)
(0.781035 0.636659 0)
(0.777298 0.644091 0)
(0.773363 0.651422 0)
(0.769236 0.658646 0)
(0.764917 0.665757 0)
(0.760411 0.67275 0)
(0.75572 0.679621 0)
(0.750847 0.686365 0)
(0.745797 0.692976 0)
(0.740573 0.699451 0)
(0.735178 0.705785 0)
(0.729617 0.711972 0)
(0.723893 0.71801 0)
(0.71801 0.723893 0)
(0.711972 0.729617 0)
(0.705785 0.735178 0)
(0.699451 0.740573 0)
(0.692976 0.745797 0)
(0.686365 0.750847 0)
(0.679621 0.75572 0)
(0.67275 0.760411 0)
(0.665757 0.764917 0)
(0.658646 0.769236 0)
(0.651422 0.773363 0)
(0.644091 0.777298 0)
(0.636659 0.781035 0)
(0.629129 0.784573 0)
(0.621508 0.78791 0)
(0.6138 0.791043 0)
(0.606012 0.793969 0)
(0.598149 0.796687 0)
(0.590216 0.799194 0)
(0.58222 0.80149 0)
(0.574165 0.803572 0)
(0.566057 0.805439 0)
(0.557903 0.807089 0)
(0.549707 0.808521 0)
(0.541477 0.809735 0)
(0.533217 0.81073 0)
(0.524933 0.811504 0)
(0.516632 0.812057 0)
(0.508319 0.812389 0)
(0.491681 0.812389 0)
(0.483368 0.812057 0)
(0.475067 0.811504 0)
(0.466783 0.81073 0)
(0.458523 0.809735 0)
(0.450293 0.808521 0)
(0.442097 0.807089 0)
(0.433943 0.805439 0)
(0.425835 0.803572 0)
(0.41778 0.80149 0)
(0.409784 0.799194 0)
(0.401851 0.796687 0)
(0.393988 0.793969 0)
(0.3862 0.791043 0)
(0.378492 0.78791 0)
(0.370871 0.784573 0)
(0.363341 0.781035 0)
(0.355909 0.777298 0)
(0.348578 0.773363 0)
(0.341354 0.769236 0)
(0.334243 0.764917 0)
(0.32725 0.760411 0)
(0.320379 0.75572 0)
(0.313635 0.750847 0)
(0.307024 0.745797 0)
(0.300549 0.740573 0)
(0.294215 0.735178 0)
(0.288028 0.729617 0)
(0.28199 0.723893 0)
(0.276107 0.71801 0)
(0.270383 0.711972 0)
(0.264822 0.705785 0)
(0.259427 0.699451 0)
(0.254203 0.692976 0)
(0.249153 0.686365 0)
(0.24428 0.679621 0)
(0.239589 0.67275 0)
(0.235083 0.665757 0)
(0.230764 0.658646 0)
(0.226637 0.651422 0)
(0.222702 0.644091 0)
(0.218965 0.636659 0)
(0.215427 0.629129 0)
(0.21209 0.621508 0)
(0.208957 0.6138 0)
(0.206031 0.606012 0)
(0.203313 0.598149 0)
(0.200806 0.590216 0)
(0.19851 0.58222 0)
(0.196428 0.574165 0)
(0.194561 0.566057 0)
(0.192911 0.557903 0)
(0.191479 0.549707 0)
(0.190265 0.541477 0)
(0.18927 0.533217 0)
(0.188496 0.524933 0)
(0.187943 0.516632 0)
(0.187611 0.508319 0)
(0.187611 0.491681 0)
(0.187943 0.483368 0)
(0.188496 0.475067 0)
(0.18927 0.466783 0)
(0.190265 0.458523 0)
(0.191479 0.450293 0)
(0.192911 0.442097 0)
(0.194561 0.433943 0)
(0.196428 0.425835 0)
(0.19851 0.41778 0)
(0.200806 0.409784 0)
(0.203313 0.401851 0)
(0.206031 0.393988 0)
(0.208957 0.3862 0)
(0.21209 0.378492 0)
(0.215427 0.370871 0)
(0.218965 0.363341 0)
(0.222702 0.355909 0)
(0.226637 0.348578 0)
(0.230764 0.341354 0)
(0.235083 0.334243 0)
(0.239589 0.32725 0)
(0.24428 0.320379 0)
(0.249153 0.313635 0)
(0.254203 0.307024 0)
(0.259427 0.300549 0)
(0.264822 0.294215 0)
(0.270383 0.288028 0)
(0.276107 0.28199 0)
(0.28199 0.276107 0)
(0.288028 0.270383 0)
(0.294215 0.264822 0)
(0.300549 0.259427 0)
(0.307024 0.254203 0)
(0.313635 0.249153 0)
(0.320379 0.24428 0)
(0.32725 0.239589 0)
(0.334243 0.235083 0)
(0.341354 0.230764 0)
(0.348578 0.226637 0)
(0.355909 0.222702 0)
(0.363341 0.218965 0)
(0.370871 0.215427 0)
(0.378492 0.21209 0)
(0.3862 0.208957 0)
(0.393988 0.206031 0)
(0.401851 0.203313 0)
(0.409784 0.200806 0)
(0.41778 0.19851 0)
(0.425835 0.196428 0)
(0.433943 0.194561 0)
(0.442097 0.192911 0)
(0.450293 0.191479 0)
(0.458523 0.190265 0)
(0.466783 0.18927 0)
(0.475067 0.188496 0)
(0.483368 0.187943 0)
(0.491681 0.187611 0)
(0.508319 0.187611 0)
(0.516632 0.187943 0)
(0.524933 0.188496 0)
(0.533217 0.18927 0)
(0.541477 0.190265 0)
(0.549707 0.191479 0)
(0.557903 0.192911 0)
(0.566057 0.194561 0)
(0.574165 0.196428 0)
(0.58222 0.19851 0)
(0.590216 0.200806 0)
(0.598149 0.203313 0)
(0.606012 0.206031 0)
(0.6138 0.208957 0)
(0.621508 0.21209 0)
(0.629129 0.215427 0)
(0.636659 0.218965 0)
(0.644091 0.222702 0)
(0.651422 0.226637 0)
(0.658646 0.230764 0)
(0.665757 0.235083 0)
(0.67275 0.239589 0)
(0.679621 0.24428 0)
(0.686365 0.249153 0)
(0.692976 0.254203 0)
(0.699451 0.259427 0)
(0.705785 0.264822 0)
(0.711972 0.270383 0)
(0.71801 0.276107 0)
(0.723893 0.28199 0)
(0.729617 0.288028 0)
(0.735178 0.294215 0)
(0.740573 0.300549 0)
(0.745797 0.307024 0)
(0.750847 0.313635 0)
(0.75572 0.320379 0)
(0.760411 0.32725 0)
(0.764917 0.334243 0)
(0.769236 0.341354 0)
(0.773363 0.348578 0)
(0.777298 0.355909 0)
(0.781035 0.363341 0)
(0.784573 0.370871 0)
(0.78791 0.378492 0)
(0.791043 0.3862 0)
(0.793969 0.393988 0)
(0.796687 0.401851 0)
(0.799194 0.409784 0)
(0.80149 0.41778 0)
(0.803572 0.425835 0)
(0.805439 0.433943 0)
(0.807089 0.442097 0)
(0.808521 0.450293 0)
(0.809735 0.458523 0)
(0.81073 0.466783 0)
(0.811504 0.475067 0)
(0.812057 0.483368 0)
(0.812389 0.491681 0)
(0.749911 0.506655 0)
(0.749646 0.513306 0)
(0.749203 0.519947 0)
(0.748584 0.526573 0)
(0.747788 0.533181 0)
(0.746817 0.539766 0)
(0.745671 0.546322 0)
(0.744351 0.552846 0)
(0.742857 0.559332 0)
(0.741192 0.565776 0)
(0.739356 0.572173 0)
(0.737349 0.578519 0)
(0.735175 0.58481 0)
(0.732834 0.59104 0)
(0.730328 0.597206 0)
(0.727659 0.603303 0)
(0.724828 0.609327 0)
(0.721838 0.615273 0)
(0.718691 0.621138 0)
(0.715389 0.626916 0)
(0.711934 0.632605 0)
(0.708328 0.6382 0)
(0.704576 0.643697 0)
(0.700678 0.649092 0)
(0.696638 0.654381 0)
(0.692458 0.659561 0)
(0.688143 0.664628 0)
(0.683694 0.669578 0)
(0.679114 0.674408 0)
(0.674408 0.679114 0)
(0.669578 0.683694 0)
(0.664628 0.688143 0)
(0.659561 0.692458 0)
(0.654381 0.696638 0)
(0.649092 0.700678 0)
(0.643697 0.704576 0)
(0.6382 0.708328 0)
(0.632605 0.711934 0)
(0.626916 0.715389 0)
(0.621138 0.718691 0)
(0.615273 0.721838 0)
(0.609327 0.724828 0)
(0.603303 0.727659 0)
(0.597206 0.730328 0)
(0.59104 0.732834 0)
(0.58481 0.735175 0)
(0.578519 0.737349 0)
(0.572173 0.739356 0)
(0.565776 0.741192 0)
(0.559332 0.742857 0)
(0.552846 0.744351 0)
(0.546322 0.745671 0)
(0.539766 0.746817 0)
(0.533181 0.747788 0)
(0.526573 0.748584 0)
(0.519947 0.749203 0)
(0.513306 0.749646 0)
(0.506655 0.749911 0)
(0.493345 0.749911 0)
(0.486694 0.749646 0)
(0.480053 0.749203 0)
(0.473427 0.748584 0)
(0.466819 0.747788 0)
(0.460234 0.746817 0)
(0.453678 0.745671 0)
(0.447154 0.744351 0)
(0.440668 0.742857 0)
(0.434224 0.741192 0)
(0.427827 0.739356 0)
(0.421481 0.737349 0)
(0.41519 0.735175 0)
(0.40896 0.732834 0)
(0.402794 0.730328 0)
(0.396697 0.727659 0)
(0.390673 0.724828 0)
(0.384727 0.721838 0)
(0.378862 0.718691 0)
(0.373084 0.715389 0)
(0.367395 0.711934 0)
(0.3618 0.708328 0)
(0.356303 0.704576 0)
(0.350908 0.700678 0)
(0.345619 0.696638 0)
(0.340439 0.692458 0)
(0.335372 0.688143 0)
(0.330422 0.683694 0)
(0.325592 0.679114 0)
(0.320886 0.674408 0)
(0.316306 0.669578 0)
(0.311857 0.664628 0)
(0.307542 0.659561 0)
(0.303362 0.654381 0)
(0.299322 0.649092 0)
(0.295424 0.643697 0)
(0.291672 0.6382 0)
(0.288066 0.632605 0)
(0.284611 0.626916 0)
(0.281309 0.621138 0)
(0.278162 0.615273 0)
(0.275172 0.609327 0)
(0.272341 0.603303 0)
(0.269672 0.597206 0)
(0.267166 0.59104 0)
(0.264825 0.58481 0)
(0.262651 0.578519 0)
(0.260644 0.572173 0)
(0.258808 0.565776 0)
(0.257143 0.559332 0)
(0.255649 0.552846 0)
(0.254329 0.546322 0)
(0.253183 0.539766 0)
(0.252212 0.533181 0)
(0.251416 0.526573 0)
(0.250797 0.519947 0)
(0.250354 0.513306 0)
(0.250089 0.506655 0)
(0.250089 0.493345 0)
(0.250354 0.486694 0)
(0.250797 0.480053 0)
(0.251416 0.473427 0)
(0.252212 0.466819 0)
(0.253183 0.460234 0)
(0.254329 0.453678 0)
(0.255649 0.447154 0)
(0.257143 0.440668 0)
(0.258808 0.434224 0)
(0.260644 0.427827 0)
(0.262651 0.421481 0)
(0.264825 0.41519 0)
(0.267166 0.40896 0)
(0.269672 0.402794 0)
(0.272341 0.396697 0)
(0.275172 0.390673 0)
(0.278162 0.384727 0)
(0.281309 0.378862 0)
(0.284611 0.373084 0)
(0.288066 0.367395 0)
(0.291672 0.3618 0)
(0.295424 0.356303 0)
(0.299322 0.350908 0)
(0.303362 0.345619 0)
(0.307542 0.340439 0)
(0.311857 0.335372 0)
(0.316306 0.330422 0)
(0.320886 0.325592 0)
(0.325592 0.320886 0)
(0.330422 0.316306 0)
(0.335372 0.311857 0)
(0.340439 0.307542 0)
(0.345619 0.303362 0)
(0.350908 0.299322 0)
(0.356303 0.295424 0)
(0.3618 0.291672 0)
(0.367395 0.288066 0)
(0.373084 0.284611 0)
(0.378862 0.281309 0)
(0.384727 0.278162 0)
(0.390673 0.275172 0)
(0.396697 0.272341 0)
(0.402794 0.269672 0)
(0.40896 0.267166 0)
(0.41519 0.264825 0)
(0.421481 0.262651 0)
(0.427827 0.260644 0)
(0.434224 0.258808 0)
(0.440668 0.257143 0)
(0.447154 0.255649 0)
(0.453678 0.254329 0)
(0.460234 0.253183 0)
(0.466819 0.252212 0)
(0.473427 0.251416 0)
(0.480053 0.250797 0)
(0.486694 0.250354 0)
(0.493345 0.250089 0)
(0.506655 0.250089 0)
(0.513306 0.250354 0)
(0.519947 0.250797 0)
(0.526573 0.251416 0)
(0.533181 0.252212 0)
(0.539766 0.253183 0)
(0.546322 0.254329 0)
(0.552846 0.255649 0)
(0.559332 0.257143 0)
(0.565776 0.258808 0)
(0.572173 0.260644 0)
(0.578519 0.262651 0)
(0.58481 0.264825 0)
(0.59104 0.267166 0)
(0.597206 0.269672 0)
(0.603303 0.272341 0)
(0.609327 0.275172 0)
(0.615273 0.278162 0)
(0.621138 0.281309 0)
(0.626916 0.284611 0)
(0.632605 0.288066 0)
(0.6382 0.291672 0)
(0.643697 0.295424 0)
(0.649092 0.299322 0)
(0.654381 0.303362 0)
(0.659561 0.307542 0)
(0.664628 0.311857 0)
(0.669578 0.316306 0)
(0.674408 0.320886 0)
(0.679114 0.325592 0)
(0.683694 0.330422 0)
(0.688143 0.335372 0)
(0.692458 0.340439 0)
(0.696638 0.345619 0)
(0.700678 0.350908 0)
(0.704576 0.356303 0)
(0.708328 0.3618 0)
(0.711934 0.367395 0)
(0.715389 0.373084 0)
(0.718691 0.378862 0)
(0.721838 0.384727 0)
(0.724828 0.390673 0)
(0.727659 0.396697 0)
(0.730328 0.402794 0)
(0.732834 0.40896 0)
(0.735175 0.41519 0)
(0.737349 0.421481 0)
(0.739356 0.427827 0)
(0.741192 0.434224 0)
(0.742857 0.440668 0)
(0.744351 0.447154 0)
(0.745671 0.453678 0)
(0.746817 0.460234 0)
(0.747788 0.466819 0)
(0.748584 0.473427 0)
(0.749203 0.480053 0)
(0.749646 0.486694 0)
(0.749911 0.493345 0)
(0.5 0.8 0)
(0.5 0.7875 0)
(0.5 0.775 0)
(0.5 0.7625 0)
(0.7625 0.5 0)
(0.775 0.5 0)
(0.7875 0.5 0)
(0.8 0.5 0)
(0.5 0.2375 0)
(0.5 0.225 0)
(0.5 0.2125 0)
(0.5 0.2 0)
(0.2375 0.5 0)
(0.225 0.5 0)
(0.2125 0.5 0)
(0.2 0.5 0)
(0.492014 0.799894 0)
(0.492347 0.787398 0)
(0.492679 0.774903 0)
(0.493012 0.762407 0)
(0.484033 0.799575 0)
(0.484699 0.787093 0)
(0.485364 0.77461 0)
(0.486029 0.762128 0)
(0.476064 0.799044 0)
(0.477061 0.786583 0)
(0.478059 0.774123 0)
(0.479056 0.761663 0)
(0.468112 0.7983 0)
(0.469441 0.785871 0)
(0.470769 0.773442 0)
(0.472098 0.761013 0)
(0.460182 0.797346 0)
(0.461841 0.784956 0)
(0.4635 0.772567 0)
(0.46516 0.760178 0)
(0.452281 0.796181 0)
(0.454269 0.78384 0)
(0.456258 0.771499 0)
(0.458246 0.759158 0)
(0.444413 0.794805 0)
(0.446729 0.782522 0)
(0.449046 0.770238 0)
(0.451362 0.757955 0)
(0.436585 0.793221 0)
(0.439227 0.781003 0)
(0.44187 0.768786 0)
(0.444512 0.756568 0)
(0.428802 0.791429 0)
(0.431769 0.779286 0)
(0.434735 0.767143 0)
(0.437702 0.755 0)
(0.421069 0.78943 0)
(0.424358 0.777371 0)
(0.427647 0.765311 0)
(0.430936 0.753252 0)
(0.413392 0.787227 0)
(0.417001 0.775259 0)
(0.42061 0.763291 0)
(0.424218 0.751323 0)
(0.405777 0.784819 0)
(0.409703 0.772952 0)
(0.413629 0.761084 0)
(0.417555 0.749217 0)
(0.398228 0.78221 0)
(0.402469 0.770451 0)
(0.406709 0.758693 0)
(0.41095 0.746934 0)
(0.390752 0.779401 0)
(0.395304 0.767759 0)
(0.399856 0.756117 0)
(0.404408 0.744476 0)
(0.383353 0.776394 0)
(0.388213 0.764877 0)
(0.393073 0.753361 0)
(0.397934 0.741844 0)
(0.376036 0.77319 0)
(0.381201 0.761807 0)
(0.386367 0.750425 0)
(0.391532 0.739042 0)
(0.368808 0.769794 0)
(0.374274 0.758552 0)
(0.37974 0.747311 0)
(0.385207 0.736069 0)
(0.361672 0.766206 0)
(0.367436 0.755114 0)
(0.3732 0.744022 0)
(0.378963 0.73293 0)
(0.354635 0.762429 0)
(0.360692 0.751494 0)
(0.366749 0.74056 0)
(0.372805 0.729625 0)
(0.3477 0.758466 0)
(0.354046 0.747697 0)
(0.360392 0.736927 0)
(0.366738 0.726158 0)
(0.340874 0.75432 0)
(0.347504 0.743724 0)
(0.354134 0.733127 0)
(0.360765 0.72253 0)
(0.33416 0.749994 0)
(0.34107 0.739578 0)
(0.34798 0.729161 0)
(0.35489 0.718745 0)
(0.327564 0.745491 0)
(0.334749 0.735262 0)
(0.341933 0.725033 0)
(0.349118 0.714804 0)
(0.32109 0.740813 0)
(0.328544 0.73078 0)
(0.335999 0.720746 0)
(0.343454 0.710712 0)
(0.314743 0.735965 0)
(0.322462 0.726134 0)
(0.330181 0.716302 0)
(0.3379 0.70647 0)
(0.308527 0.73095 0)
(0.316505 0.721327 0)
(0.324483 0.711704 0)
(0.332461 0.702081 0)
(0.302447 0.725771 0)
(0.310678 0.716364 0)
(0.318909 0.706957 0)
(0.327141 0.69755 0)
(0.296506 0.720432 0)
(0.304985 0.711248 0)
(0.313464 0.702063 0)
(0.321943 0.692878 0)
(0.290711 0.714937 0)
(0.299431 0.705981 0)
(0.308151 0.697026 0)
(0.316872 0.68807 0)
(0.285063 0.709289 0)
(0.294019 0.700569 0)
(0.302974 0.691849 0)
(0.31193 0.683128 0)
(0.279568 0.703494 0)
(0.288752 0.695015 0)
(0.297937 0.686536 0)
(0.307122 0.678057 0)
(0.274229 0.697553 0)
(0.283636 0.689322 0)
(0.293043 0.681091 0)
(0.30245 0.672859 0)
(0.26905 0.691473 0)
(0.278673 0.683495 0)
(0.288296 0.675517 0)
(0.297919 0.667539 0)
(0.264035 0.685257 0)
(0.273866 0.677538 0)
(0.283698 0.669819 0)
(0.29353 0.6621 0)
(0.259187 0.67891 0)
(0.26922 0.671456 0)
(0.279254 0.664001 0)
(0.289288 0.656546 0)
(0.254509 0.672436 0)
(0.264738 0.665251 0)
(0.274967 0.658067 0)
(0.285196 0.650882 0)
(0.250006 0.66584 0)
(0.260422 0.65893 0)
(0.270839 0.65202 0)
(0.281255 0.64511 0)
(0.24568 0.659126 0)
(0.256276 0.652496 0)
(0.266873 0.645866 0)
(0.27747 0.639235 0)
(0.241534 0.6523 0)
(0.252303 0.645954 0)
(0.263073 0.639608 0)
(0.273842 0.633262 0)
(0.237571 0.645365 0)
(0.248506 0.639308 0)
(0.25944 0.633251 0)
(0.270375 0.627195 0)
(0.233794 0.638328 0)
(0.244886 0.632564 0)
(0.255978 0.6268 0)
(0.26707 0.621037 0)
(0.230206 0.631192 0)
(0.241448 0.625726 0)
(0.252689 0.62026 0)
(0.263931 0.614793 0)
(0.22681 0.623964 0)
(0.238193 0.618799 0)
(0.249575 0.613633 0)
(0.260958 0.608468 0)
(0.223606 0.616647 0)
(0.235123 0.611787 0)
(0.246639 0.606927 0)
(0.258156 0.602066 0)
(0.220599 0.609248 0)
(0.232241 0.604696 0)
(0.243883 0.600144 0)
(0.255524 0.595592 0)
(0.21779 0.601772 0)
(0.229549 0.597531 0)
(0.241307 0.593291 0)
(0.253066 0.58905 0)
(0.215181 0.594223 0)
(0.227048 0.590297 0)
(0.238916 0.586371 0)
(0.250783 0.582445 0)
(0.212773 0.586608 0)
(0.224741 0.582999 0)
(0.236709 0.57939 0)
(0.248677 0.575782 0)
(0.21057 0.578931 0)
(0.222629 0.575642 0)
(0.234689 0.572353 0)
(0.246748 0.569064 0)
(0.208571 0.571198 0)
(0.220714 0.568231 0)
(0.232857 0.565265 0)
(0.245 0.562298 0)
(0.206779 0.563415 0)
(0.218997 0.560773 0)
(0.231214 0.55813 0)
(0.243432 0.555488 0)
(0.205195 0.555587 0)
(0.217478 0.553271 0)
(0.229762 0.550954 0)
(0.242045 0.548638 0)
(0.203819 0.547719 0)
(0.21616 0.545731 0)
(0.228501 0.543742 0)
(0.240842 0.541754 0)
(0.202654 0.539818 0)
(0.215044 0.538159 0)
(0.227433 0.5365 0)
(0.239822 0.53484 0)
(0.2017 0.531888 0)
(0.214129 0.530559 0)
(0.226558 0.529231 0)
(0.238987 0.527902 0)
(0.200956 0.523936 0)
(0.213417 0.522939 0)
(0.225877 0.521941 0)
(0.238337 0.520944 0)
(0.200425 0.515967 0)
(0.212907 0.515301 0)
(0.22539 0.514636 0)
(0.237872 0.513971 0)
(0.200106 0.507986 0)
(0.212602 0.507653 0)
(0.225097 0.507321 0)
(0.237593 0.506988 0)
(0.237593 0.493012 0)
(0.237872 0.486029 0)
(0.238337 0.479056 0)
(0.238987 0.472098 0)
(0.239822 0.46516 0)
(0.240842 0.458246 0)
(0.242045 0.451362 0)
(0.243432 0.444512 0)
(0.245 0.437702 0)
(0.246748 0.430936 0)
(0.248677 0.424218 0)
(0.250783 0.417555 0)
(0.253066 0.41095 0)
(0.255524 0.404408 0)
(0.258156 0.397934 0)
(0.260958 0.391532 0)
(0.263931 0.385207 0)
(0.26707 0.378963 0)
(0.270375 0.372805 0)
(0.273842 0.366738 0)
(0.27747 0.360765 0)
(0.281255 0.35489 0)
(0.285196 0.349118 0)
(0.289288 0.343454 0)
(0.29353 0.3379 0)
(0.297919 0.332461 0)
(0.30245 0.327141 0)
(0.307122 0.321943 0)
(0.31193 0.316872 0)
(0.316872 0.31193 0)
(0.321943 0.307122 0)
(0.327141 0.30245 0)
(0.332461 0.297919 0)
(0.3379 0.29353 0)
(0.343454 0.289288 0)
(0.349118 0.285196 0)
(0.35489 0.281255 0)
(0.360765 0.27747 0)
(0.366738 0.273842 0)
(0.372805 0.270375 0)
(0.378963 0.26707 0)
(0.385207 0.263931 0)
(0.391532 0.260958 0)
(0.397934 0.258156 0)
(0.404408 0.255524 0)
(0.41095 0.253066 0)
(0.417555 0.250783 0)
(0.424218 0.248677 0)
(0.430936 0.246748 0)
(0.437702 0.245 0)
(0.444512 0.243432 0)
(0.451362 0.242045 0)
(0.458246 0.240842 0)
(0.46516 0.239822 0)
(0.472098 0.238987 0)
(0.479056 0.238337 0)
(0.486029 0.237872 0)
(0.493012 0.237593 0)
(0.225097 0.492679 0)
(0.22539 0.485364 0)
(0.225877 0.478059 0)
(0.226558 0.470769 0)
(0.227433 0.4635 0)
(0.228501 0.456258 0)
(0.229762 0.449046 0)
(0.231214 0.44187 0)
(0.232857 0.434735 0)
(0.234689 0.427647 0)
(0.236709 0.42061 0)
(0.238916 0.413629 0)
(0.241307 0.406709 0)
(0.243883 0.399856 0)
(0.246639 0.393073 0)
(0.249575 0.386367 0)
(0.252689 0.37974 0)
(0.255978 0.3732 0)
(0.25944 0.366749 0)
(0.263073 0.360392 0)
(0.266873 0.354134 0)
(0.270839 0.34798 0)
(0.274967 0.341933 0)
(0.279254 0.335999 0)
(0.283698 0.330181 0)
(0.288296 0.324483 0)
(0.293043 0.318909 0)
(0.297937 0.313464 0)
(0.302974 0.308151 0)
(0.308151 0.302974 0)
(0.313464 0.297937 0)
(0.318909 0.293043 0)
(0.324483 0.288296 0)
(0.330181 0.283698 0)
(0.335999 0.279254 0)
(0.341933 0.274967 0)
(0.34798 0.270839 0)
(0.354134 0.266873 0)
(0.360392 0.263073 0)
(0.366749 0.25944 0)
(0.3732 0.255978 0)
(0.37974 0.252689 0)
(0.386367 0.249575 0)
(0.393073 0.246639 0)
(0.399856 0.243883 0)
(0.406709 0.241307 0)
(0.413629 0.238916 0)
(0.42061 0.236709 0)
(0.427647 0.234689 0)
(0.434735 0.232857 0)
(0.44187 0.231214 0)
(0.449046 0.229762 0)
(0.456258 0.228501 0)
(0.4635 0.227433 0)
(0.470769 0.226558 0)
(0.478059 0.225877 0)
(0.485364 0.22539 0)
(0.492679 0.225097 0)
(0.212602 0.492347 0)
(0.212907 0.484699 0)
(0.213417 0.477061 0)
(0.214129 0.469441 0)
(0.215044 0.461841 0)
(0.21616 0.454269 0)
(0.217478 0.446729 0)
(0.218997 0.439227 0)
(0.220714 0.431769 0)
(0.222629 0.424358 0)
(0.224741 0.417001 0)
(0.227048 0.409703 0)
(0.229549 0.402469 0)
(0.232241 0.395304 0)
(0.235123 0.388213 0)
(0.238193 0.381201 0)
(0.241448 0.374274 0)
(0.244886 0.367436 0)
(0.248506 0.360692 0)
(0.252303 0.354046 0)
(0.256276 0.347504 0)
(0.260422 0.34107 0)
(0.264738 0.334749 0)
(0.26922 0.328544 0)
(0.273866 0.322462 0)
(0.278673 0.316505 0)
(0.283636 0.310678 0)
(0.288752 0.304985 0)
(0.294019 0.299431 0)
(0.299431 0.294019 0)
(0.304985 0.288752 0)
(0.310678 0.283636 0)
(0.316505 0.278673 0)
(0.322462 0.273866 0)
(0.328544 0.26922 0)
(0.334749 0.264738 0)
(0.34107 0.260422 0)
(0.347504 0.256276 0)
(0.354046 0.252303 0)
(0.360692 0.248506 0)
(0.367436 0.244886 0)
(0.374274 0.241448 0)
(0.381201 0.238193 0)
(0.388213 0.235123 0)
(0.395304 0.232241 0)
(0.402469 0.229549 0)
(0.409703 0.227048 0)
(0.417001 0.224741 0)
(0.424358 0.222629 0)
(0.431769 0.220714 0)
(0.439227 0.218997 0)
(0.446729 0.217478 0)
(0.454269 0.21616 0)
(0.461841 0.215044 0)
(0.469441 0.214129 0)
(0.477061 0.213417 0)
(0.484699 0.212907 0)
(0.492347 0.212602 0)
(0.200106 0.492014 0)
(0.200425 0.484033 0)
(0.200956 0.476064 0)
(0.2017 0.468112 0)
(0.202654 0.460182 0)
(0.203819 0.452281 0)
(0.205195 0.444413 0)
(0.206779 0.436585 0)
(0.208571 0.428802 0)
(0.21057 0.421069 0)
(0.212773 0.413392 0)
(0.215181 0.405777 0)
(0.21779 0.398228 0)
(0.220599 0.390752 0)
(0.223606 0.383353 0)
(0.22681 0.376036 0)
(0.230206 0.368808 0)
(0.233794 0.361672 0)
(0.237571 0.354635 0)
(0.241534 0.3477 0)
(0.24568 0.340874 0)
(0.250006 0.33416 0)
(0.254509 0.327564 0)
(0.259187 0.32109 0)
(0.264035 0.314743 0)
(0.26905 0.308527 0)
(0.274229 0.302447 0)
(0.279568 0.296506 0)
(0.285063 0.290711 0)
(0.290711 0.285063 0)
(0.296506 0.279568 0)
(0.302447 0.274229 0)
(0.308527 0.26905 0)
(0.314743 0.264035 0)
(0.32109 0.259187 0)
(0.327564 0.254509 0)
(0.33416 0.250006 0)
(0.340874 0.24568 0)
(0.3477 0.241534 0)
(0.354635 0.237571 0)
(0.361672 0.233794 0)
(0.368808 0.230206 0)
(0.376036 0.22681 0)
(0.383353 0.223606 0)
(0.390752 0.220599 0)
(0.398228 0.21779 0)
(0.405777 0.215181 0)
(0.413392 0.212773 0)
(0.421069 0.21057 0)
(0.428802 0.208571 0)
(0.436585 0.206779 0)
(0.444413 0.205195 0)
(0.452281 0.203819 0)
(0.460182 0.202654 0)
(0.468112 0.2017 0)
(0.476064 0.200956 0)
(0.484033 0.200425 0)
(0.492014 0.200106 0)
(0.506988 0.237593 0)
(0.513971 0.237872 0)
(0.520944 0.238337 0)
(0.527902 0.238987 0)
(0.53484 0.239822 0)
(0.541754 0.240842 0)
(0.548638 0.242045 0)
(0.555488 0.243432 0)
(0.562298 0.245 0)
(0.569064 0.246748 0)
(0.575782 0.248677 0)
(0.582445 0.250783 0)
(0.58905 0.253066 0)
(0.595592 0.255524 0)
(0.602066 0.258156 0)
(0.608468 0.260958 0)
(0.614793 0.263931 0)
(0.621037 0.26707 0)
(0.627195 0.270375 0)
(0.633262 0.273842 0)
(0.639235 0.27747 0)
(0.64511 0.281255 0)
(0.650882 0.285196 0)
(0.656546 0.289288 0)
(0.6621 0.29353 0)
(0.667539 0.297919 0)
(0.672859 0.30245 0)
(0.678057 0.307122 0)
(0.683128 0.31193 0)
(0.68807 0.316872 0)
(0.692878 0.321943 0)
(0.69755 0.327141 0)
(0.702081 0.332461 0)
(0.70647 0.3379 0)
(0.710712 0.343454 0)
(0.714804 0.349118 0)
(0.718745 0.35489 0)
(0.72253 0.360765 0)
(0.726158 0.366738 0)
(0.729625 0.372805 0)
(0.73293 0.378963 0)
(0.736069 0.385207 0)
(0.739042 0.391532 0)
(0.741844 0.397934 0)
(0.744476 0.404408 0)
(0.746934 0.41095 0)
(0.749217 0.417555 0)
(0.751323 0.424218 0)
(0.753252 0.430936 0)
(0.755 0.437702 0)
(0.756568 0.444512 0)
(0.757955 0.451362 0)
(0.759158 0.458246 0)
(0.760178 0.46516 0)
(0.761013 0.472098 0)
(0.761663 0.479056 0)
(0.762128 0.486029 0)
(0.762407 0.493012 0)
(0.507321 0.225097 0)
(0.514636 0.22539 0)
(0.521941 0.225877 0)
(0.529231 0.226558 0)
(0.5365 0.227433 0)
(0.543742 0.228501 0)
(0.550954 0.229762 0)
(0.55813 0.231214 0)
(0.565265 0.232857 0)
(0.572353 0.234689 0)
(0.57939 0.236709 0)
(0.586371 0.238916 0)
(0.593291 0.241307 0)
(0.600144 0.243883 0)
(0.606927 0.246639 0)
(0.613633 0.249575 0)
(0.62026 0.252689 0)
(0.6268 0.255978 0)
(0.633251 0.25944 0)
(0.639608 0.263073 0)
(0.645866 0.266873 0)
(0.65202 0.270839 0)
(0.658067 0.274967 0)
(0.664001 0.279254 0)
(0.669819 0.283698 0)
(0.675517 0.288296 0)
(0.681091 0.293043 0)
(0.686536 0.297937 0)
(0.691849 0.302974 0)
(0.697026 0.308151 0)
(0.702063 0.313464 0)
(0.706957 0.318909 0)
(0.711704 0.324483 0)
(0.716302 0.330181 0)
(0.720746 0.335999 0)
(0.725033 0.341933 0)
(0.729161 0.34798 0)
(0.733127 0.354134 0)
(0.736927 0.360392 0)
(0.74056 0.366749 0)
(0.744022 0.3732 0)
(0.747311 0.37974 0)
(0.750425 0.386367 0)
(0.753361 0.393073 0)
(0.756117 0.399856 0)
(0.758693 0.406709 0)
(0.761084 0.413629 0)
(0.763291 0.42061 0)
(0.765311 0.427647 0)
(0.767143 0.434735 0)
(0.768786 0.44187 0)
(0.770238 0.449046 0)
(0.771499 0.456258 0)
(0.772567 0.4635 0)
(0.773442 0.470769 0)
(0.774123 0.478059 0)
(0.77461 0.485364 0)
(0.774903 0.492679 0)
(0.507653 0.212602 0)
(0.515301 0.212907 0)
(0.522939 0.213417 0)
(0.530559 0.214129 0)
(0.538159 0.215044 0)
(0.545731 0.21616 0)
(0.553271 0.217478 0)
(0.560773 0.218997 0)
(0.568231 0.220714 0)
(0.575642 0.222629 0)
(0.582999 0.224741 0)
(0.590297 0.227048 0)
(0.597531 0.229549 0)
(0.604696 0.232241 0)
(0.611787 0.235123 0)
(0.618799 0.238193 0)
(0.625726 0.241448 0)
(0.632564 0.244886 0)
(0.639308 0.248506 0)
(0.645954 0.252303 0)
(0.652496 0.256276 0)
(0.65893 0.260422 0)
(0.665251 0.264738 0)
(0.671456 0.26922 0)
(0.677538 0.273866 0)
(0.683495 0.278673 0)
(0.689322 0.283636 0)
(0.695015 0.288752 0)
(0.700569 0.294019 0)
(0.705981 0.299431 0)
(0.711248 0.304985 0)
(0.716364 0.310678 0)
(0.721327 0.316505 0)
(0.726134 0.322462 0)
(0.73078 0.328544 0)
(0.735262 0.334749 0)
(0.739578 0.34107 0)
(0.743724 0.347504 0)
(0.747697 0.354046 0)
(0.751494 0.360692 0)
(0.755114 0.367436 0)
(0.758552 0.374274 0)
(0.761807 0.381201 0)
(0.764877 0.388213 0)
(0.767759 0.395304 0)
(0.770451 0.402469 0)
(0.772952 0.409703 0)
(0.775259 0.417001 0)
(0.777371 0.424358 0)
(0.779286 0.431769 0)
(0.781003 0.439227 0)
(0.782522 0.446729 0)
(0.78384 0.454269 0)
(0.784956 0.461841 0)
(0.785871 0.469441 0)
(0.786583 0.477061 0)
(0.787093 0.484699 0)
(0.787398 0.492347 0)
(0.507986 0.200106 0)
(0.515967 0.200425 0)
(0.523936 0.200956 0)
(0.531888 0.2017 0)
(0.539818 0.202654 0)
(0.547719 0.203819 0)
(0.555587 0.205195 0)
(0.563415 0.206779 0)
(0.571198 0.208571 0)
(0.578931 0.21057 0)
(0.586608 0.212773 0)
(0.594223 0.215181 0)
(0.601772 0.21779 0)
(0.609248 0.220599 0)
(0.616647 0.223606 0)
(0.623964 0.22681 0)
(0.631192 0.230206 0)
(0.638328 0.233794 0)
(0.645365 0.237571 0)
(0.6523 0.241534 0)
(0.659126 0.24568 0)
(0.66584 0.250006 0)
(0.672436 0.254509 0)
(0.67891 0.259187 0)
(0.685257 0.264035 0)
(0.691473 0.26905 0)
(0.697553 0.274229 0)
(0.703494 0.279568 0)
(0.709289 0.285063 0)
(0.714937 0.290711 0)
(0.720432 0.296506 0)
(0.725771 0.302447 0)
(0.73095 0.308527 0)
(0.735965 0.314743 0)
(0.740813 0.32109 0)
(0.745491 0.327564 0)
(0.749994 0.33416 0)
(0.75432 0.340874 0)
(0.758466 0.3477 0)
(0.762429 0.354635 0)
(0.766206 0.361672 0)
(0.769794 0.368808 0)
(0.77319 0.376036 0)
(0.776394 0.383353 0)
(0.779401 0.390752 0)
(0.78221 0.398228 0)
(0.784819 0.405777 0)
(0.787227 0.413392 0)
(0.78943 0.421069 0)
(0.791429 0.428802 0)
(0.793221 0.436585 0)
(0.794805 0.444413 0)
(0.796181 0.452281 0)
(0.797346 0.460182 0)
(0.7983 0.468112 0)
(0.799044 0.476064 0)
(0.799575 0.484033 0)
(0.799894 0.492014 0)
(0.762407 0.506988 0)
(0.762128 0.513971 0)
(0.761663 0.520944 0)
(0.761013 0.527902 0)
(0.760178 0.53484 0)
(0.759158 0.541754 0)
(0.757955 0.548638 0)
(0.756568 0.555488 0)
(0.755 0.562298 0)
(0.753252 0.569064 0)
(0.751323 0.575782 0)
(0.749217 0.582445 0)
(0.746934 0.58905 0)
(0.744476 0.595592 0)
(0.741844 0.602066 0)
(0.739042 0.608468 0)
(0.736069 0.614793 0)
(0.73293 0.621037 0)
(0.729625 0.627195 0)
(0.726158 0.633262 0)
(0.72253 0.639235 0)
(0.718745 0.64511 0)
(0.714804 0.650882 0)
(0.710712 0.656546 0)
(0.70647 0.6621 0)
(0.702081 0.667539 0)
(0.69755 0.672859 0)
(0.692878 0.678057 0)
(0.68807 0.683128 0)
(0.683128 0.68807 0)
(0.678057 0.692878 0)
(0.672859 0.69755 0)
(0.667539 0.702081 0)
(0.6621 0.70647 0)
(0.656546 0.710712 0)
(0.650882 0.714804 0)
(0.64511 0.718745 0)
(0.639235 0.72253 0)
(0.633262 0.726158 0)
(0.627195 0.729625 0)
(0.621037 0.73293 0)
(0.614793 0.736069 0)
(0.608468 0.739042 0)
(0.602066 0.741844 0)
(0.595592 0.744476 0)
(0.58905 0.746934 0)
(0.582445 0.749217 0)
(0.575782 0.751323 0)
(0.569064 0.753252 0)
(0.562298 0.755 0)
(0.555488 0.756568 0)
(0.548638 0.757955 0)
(0.541754 0.759158 0)
(0.53484 0.760178 0)
(0.527902 0.761013 0)
(0.520944 0.761663 0)
(0.513971 0.762128 0)
(0.506988 0.762407 0)
(0.774903 0.507321 0)
(0.77461 0.514636 0)
(0.774123 0.521941 0)
(0.773442 0.529231 0)
(0.772567 0.5365 0)
(0.771499 0.543742 0)
(0.770238 0.550954 0)
(0.768786 0.55813 0)
(0.767143 0.565265 0)
(0.765311 0.572353 0)
(0.763291 0.57939 0)
(0.761084 0.586371 0)
(0.758693 0.593291 0)
(0.756117 0.600144 0)
(0.753361 0.606927 0)
(0.750425 0.613633 0)
(0.747311 0.62026 0)
(0.744022 0.6268 0)
(0.74056 0.633251 0)
(0.736927 0.639608 0)
(0.733127 0.645866 0)
(0.729161 0.65202 0)
(0.725033 0.658067 0)
(0.720746 0.664001 0)
(0.716302 0.669819 0)
(0.711704 0.675517 0)
(0.706957 0.681091 0)
(0.702063 0.686536 0)
(0.697026 0.691849 0)
(0.691849 0.697026 0)
(0.686536 0.702063 0)
(0.681091 0.706957 0)
(0.675517 0.711704 0)
(0.669819 0.716302 0)
(0.664001 0.720746 0)
(0.658067 0.725033 0)
(0.65202 0.729161 0)
(0.645866 0.733127 0)
(0.639608 0.736927 0)
(0.633251 0.74056 0)
(0.6268 0.744022 0)
(0.62026 0.747311 0)
(0.613633 0.750425 0)
(0.606927 0.753361 0)
(0.600144 0.756117 0)
(0.593291 0.758693 0)
(0.586371 0.761084 0)
(0.57939 0.763291 0)
(0.572353 0.765311 0)
(0.565265 0.767143 0)
(0.55813 0.768786 0)
(0.550954 0.770238 0)
(0.543742 0.771499 0)
(0.5365 0.772567 0)
(0.529231 0.773442 0)
(0.521941 0.774123 0)
(0.514636 0.77461 0)
(0.507321 0.774903 0)
(0.787398 0.507653 0)
(0.787093 0.515301 0)
(0.786583 0.522939 0)
(0.785871 0.530559 0)
(0.784956 0.538159 0)
(0.78384 0.545731 0)
(0.782522 0.553271 0)
(0.781003 0.560773 0)
(0.779286 0.568231 0)
(0.777371 0.575642 0)
(0.775259 0.582999 0)
(0.772952 0.590297 0)
(0.770451 0.597531 0)
(0.767759 0.604696 0)
(0.764877 0.611787 0)
(0.761807 0.618799 0)
(0.758552 0.625726 0)
(0.755114 0.632564 0)
(0.751494 0.639308 0)
(0.747697 0.645954 0)
(0.743724 0.652496 0)
(0.739578 0.65893 0)
(0.735262 0.665251 0)
(0.73078 0.671456 0)
(0.726134 0.677538 0)
(0.721327 0.683495 0)
(0.716364 0.689322 0)
(0.711248 0.695015 0)
(0.705981 0.700569 0)
(0.700569 0.705981 0)
(0.695015 0.711248 0)
(0.689322 0.716364 0)
(0.683495 0.721327 0)
(0.677538 0.726134 0)
(0.671456 0.73078 0)
(0.665251 0.735262 0)
(0.65893 0.739578 0)
(0.652496 0.743724 0)
(0.645954 0.747697 0)
(0.639308 0.751494 0)
(0.632564 0.755114 0)
(0.625726 0.758552 0)
(0.618799 0.761807 0)
(0.611787 0.764877 0)
(0.604696 0.767759 0)
(0.597531 0.770451 0)
(0.590297 0.772952 0)
(0.582999 0.775259 0)
(0.575642 0.777371 0)
(0.568231 0.779286 0)
(0.560773 0.781003 0)
(0.553271 0.782522 0)
(0.545731 0.78384 0)