/*--------------------------------*- C++ -*----------------------------------*\
| =========                 |                                                 |
| \\      /  F ield         | OpenFOAM: The Open Source CFD Toolbox           |
|  \\    /   O peration     | Version:  v1806                                 |
|   \\  /    A nd           | Web:      www.OpenFOAM.com                      |
|    \\/     M anipulation  |                                                 |
\*---------------------------------------------------------------------------*/
FoamFile
{
    version     2.0;
    format      ascii;
    class       labelListList;
    location    "constant";
    object      connectivity;
}
// * * * * * * * * * * * * * * * * * * * * * * * * * * * * * * * * * * * * * //


2360
(
3(6 66 472)
3(472 66 488)
3(472 488 473)
3(473 488 489)
3(473 489 474)
3(474 489 490)
3(474 490 475)
3(475 490 491)
3(475 491 4)
3(4 491 298)
3(66 67 488)
3(488 67 492)
3(488 492 489)
3(489 492 493)
3(489 493 490)
3(490 493 494)
3(490 494 491)
3(491 494 495)
3(491 495 298)
3(298 495 299)
3(67 68 492)
3(492 68 496)
3(492 496 493)
3(493 496 497)
3(493 497 494)
3(494 497 498)
3(494 498 495)
3(495 498 499)
3(495 499 299)
3(299 499 300)
3(68 69 496)
3(496 69 500)
3(496 500 497)
3(497 500 501)
3(497 501 498)
3(498 501 502)
3(498 502 499)
3(499 502 503)
3(499 503 300)
3(300 503 301)
3(69 70 500)
3(500 70 504)
3(500 504 501)
3(501 504 505)
3(501 505 502)
3(502 505 506)
3(502 506 503)
3(503 506 507)
3(503 507 301)
3(301 507 302)
3(70 71 504)
3(504 71 508)
3(504 508 505)
3(505 508 509)
3(505 509 506)
3(506 509 510)
3(506 510 507)
3(507 510 511)
3(507 511 302)
3(302 511 303)
3(71 72 508)
3(508 72 512)
3(508 512 509)
3(509 512 513)
3(509 513 510)
3(510 513 514)
3(510 514 511)
3(511 514 515)
3(511 515 303)
3(303 515 304)
3(72 73 512)
3(512 73 516)
3(512 516 513)
3(513 516 517)
3(513 517 514)
3(514 517 518)
3(514 518 515)
3(515 518 519)
3(515 519 304)
3(304 519 305)
3(73 74 516)
3(516 74 520)
3(516 520 517)
3(517 520 521)
3(517 521 518)
3(518 521 522)
3(518 522 519)
3(519 522 523)
3(519 523 305)
3(305 523 306)
3(74 75 520)
3(520 75 524)
3(520 524 521)
3(521 524 525)
3(521 525 522)
3(522 525 526)
3(522 526 523)
3(523 526 527)
3(523 527 306)
3(306 527 307)
3(75 76 524)
3(524 76 528)
3(524 528 525)
3(525 528 529)
3(525 529 526)
3(526 529 530)
3(526 530 527)
3(527 530 531)
3(527 531 307)
3(307 531 308)
3(76 77 528)
3(528 77 532)
3(528 532 529)
3(529 532 533)
3(529 533 530)
3(530 533 534)
3(530 534 531)
3(531 534 535)
3(531 535 308)
3(308 535 309)
3(77 78 532)
3(532 78 536)
3(532 536 533)
3(533 536 537)
3(533 537 534)
3(534 537 538)
3(534 538 535)
3(535 538 539)
3(535 539 309)
3(309 539 310)
3(78 79 536)
3(536 79 540)
3(536 540 537)
3(537 540 541)
3(537 541 538)
3(538 541 542)
3(538 542 539)
3(539 542 543)
3(539 543 310)
3(310 543 311)
3(79 80 540)
3(540 80 544)
3(540 544 541)
3(541 544 545)
3(541 545 542)
3(542 545 546)
3(542 546 543)
3(543 546 547)
3(543 547 311)
3(311 547 312)
3(80 81 544)
3(544 81 548)
3(544 548 545)
3(545 548 549)
3(545 549 546)
3(546 549 550)
3(546 550 547)
3(547 550 551)
3(547 551 312)
3(312 551 313)
3(81 82 548)
3(548 82 552)
3(548 552 549)
3(549 552 553)
3(549 553 550)
3(550 553 554)
3(550 554 551)
3(551 554 555)
3(551 555 313)
3(313 555 314)
3(82 83 552)
3(552 83 556)
3(552 556 553)
3(553 556 557)
3(553 557 554)
3(554 557 558)
3(554 558 555)
3(555 558 559)
3(555 559 314)
3(314 559 315)
3(83 84 556)
3(556 84 560)
3(556 560 557)
3(557 560 561)
3(557 561 558)
3(558 561 562)
3(558 562 559)
3(559 562 563)
3(559 563 315)
3(315 563 316)
3(84 85 560)
3(560 85 564)
3(560 564 561)
3(561 564 565)
3(561 565 562)
3(562 565 566)
3(562 566 563)
3(563 566 567)
3(563 567 316)
3(316 567 317)
3(85 86 564)
3(564 86 568)
3(564 568 565)
3(565 568 569)
3(565 569 566)
3(566 569 570)
3(566 570 567)
3(567 570 571)
3(567 571 317)
3(317 571 318)
3(86 87 568)
3(568 87 572)
3(568 572 569)
3(569 572 573)
3(569 573 570)
3(570 573 574)
3(570 574 571)
3(571 574 575)
3(571 575 318)
3(318 575 319)
3(87 88 572)
3(572 88 576)
3(572 576 573)
3(573 576 577)
3(573 577 574)
3(574 577 578)
3(574 578 575)
3(575 578 579)
3(575 579 319)
3(319 579 320)
3(88 89 576)
3(576 89 580)
3(576 580 577)
3(577 580 581)
3(577 581 578)
3(578 581 582)
3(578 582 579)
3(579 582 583)
3(579 583 320)
3(320 583 321)
3(89 90 580)
3(580 90 584)
3(580 584 581)
3(581 584 585)
3(581 585 582)
3(582 585 586)
3(582 586 583)
3(583 586 587)
3(583 587 321)
3(321 587 322)
3(90 91 584)
3(584 91 588)
3(584 588 585)
3(585 588 589)
3(585 589 586)
3(586 589 590)
3(586 590 587)
3(587 590 591)
3(587 591 322)
3(322 591 323)
3(91 92 588)
3(588 92 592)
3(588 592 589)
3(589 592 593)
3(589 593 590)
3(590 593 594)
3(590 594 591)
3(591 594 595)
3(591 595 323)
3(323 595 324)
3(92 93 592)
3(592 93 596)
3(592 596 593)
3(593 596 597)
3(593 597 594)
3(594 597 598)
3(594 598 595)
3(595 598 599)
3(595 599 324)
3(324 599 325)
3(93 94 596)
3(596 94 600)
3(596 600 597)
3(597 600 601)
3(597 601 598)
3(598 601 602)
3(598 602 599)
3(599 602 603)
3(599 603 325)
3(325 603 326)
3(94 95 600)
3(600 95 604)
3(600 604 601)
3(601 604 605)
3(601 605 602)
3(602 605 606)
3(602 606 603)
3(603 606 607)
3(603 607 326)
3(326 607 327)
3(95 96 604)
3(604 96 608)
3(604 608 605)
3(605 608 609)
3(605 609 606)
3(606 609 610)
3(606 610 607)
3(607 610 611)
3(607 611 327)
3(327 611 328)
3(96 97 608)
3(608 97 612)
3(608 612 609)
3(609 612 613)
3(609 613 610)
3(610 613 614)
3(610 614 611)
3(611 614 615)
3(611 615 328)
3(328 615 329)
3(97 98 612)
3(612 98 616)
3(612 616 613)
3(613 616 617)
3(613 617 614)
3(614 617 618)
3(614 618 615)
3(615 618 619)
3(615 619 329)
3(329 619 330)
3(98 99 616)
3(616 99 620)
3(616 620 617)
3(617 620 621)
3(617 621 618)
3(618 621 622)
3(618 622 619)
3(619 622 623)
3(619 623 330)
3(330 623 331)
3(99 100 620)
3(620 100 624)
3(620 624 621)
3(621 624 625)
3(621 625 622)
3(622 625 626)
3(622 626 623)
3(623 626 627)
3(623 627 331)
3(331 627 332)
3(100 101 624)
3(624 101 628)
3(624 628 625)
3(625 628 629)
3(625 629 626)
3(626 629 630)
3(626 630 627)
3(627 630 631)
3(627 631 332)
3(332 631 333)
3(101 102 628)
3(628 102 632)
3(628 632 629)
3(629 632 633)
3(629 633 630)
3(630 633 634)
3(630 634 631)
3(631 634 635)
3(631 635 333)
3(333 635 334)
3(102 103 632)
3(632 103 636)
3(632 636 633)
3(633 636 637)
3(633 637 634)
3(634 637 638)
3(634 638 635)
3(635 638 639)
3(635 639 334)
3(334 639 335)
3(103 104 636)
3(636 104 640)
3(636 640 637)
3(637 640 641)
3(637 641 638)
3(638 641 642)
3(638 642 639)
3(639 642 643)
3(639 643 335)
3(335 643 336)
3(104 105 640)
3(640 105 644)
3(640 644 641)
3(641 644 645)
3(641 645 642)
3(642 645 646)
3(642 646 643)
3(643 646 647)
3(643 647 336)
3(336 647 337)
3(105 106 644)
3(644 106 648)
3(644 648 645)
3(645 648 649)
3(645 649 646)
3(646 649 650)
3(646 650 647)
3(647 650 651)
3(647 651 337)
3(337 651 338)
3(106 107 648)
3(648 107 652)
3(648 652 649)
3(649 652 653)
3(649 653 650)
3(650 653 654)
3(650 654 651)
3(651 654 655)
3(651 655 338)
3(338 655 339)
3(107 108 652)
3(652 108 656)
3(652 656 653)
3(653 656 657)
3(653 657 654)
3(654 657 658)
3(654 658 655)
3(655 658 659)
3(655 659 339)
3(339 659 340)
3(108 109 656)
3(656 109 660)
3(656 660 657)
3(657 660 661)
3(657 661 658)
3(658 661 662)
3(658 662 659)
3(659 662 663)
3(659 663 340)
3(340 663 341)
3(109 110 660)
3(660 110 664)
3(660 664 661)
3(661 664 665)
3(661 665 662)
3(662 665 666)
3(662 666 663)
3(663 666 667)
3(663 667 341)
3(341 667 342)
3(110 111 664)
3(664 111 668)
3(664 668 665)
3(665 668 669)
3(665 669 666)
3(666 669 670)
3(666 670 667)
3(667 670 671)
3(667 671 342)
3(342 671 343)
3(111 112 668)
3(668 112 672)
3(668 672 669)
3(669 672 673)
3(669 673 670)
3(670 673 674)
3(670 674 671)
3(671 674 675)
3(671 675 343)
3(343 675 344)
3(112 113 672)
3(672 113 676)
3(672 676 673)
3(673 676 677)
3(673 677 674)
3(674 677 678)
3(674 678 675)
3(675 678 679)
3(675 679 344)
3(344 679 345)
3(113 114 676)
3(676 114 680)
3(676 680 677)
3(677 680 681)
3(677 681 678)
3(678 681 682)
3(678 682 679)
3(679 682 683)
3(679 683 345)
3(345 683 346)
3(114 115 680)
3(680 115 684)
3(680 684 681)
3(681 684 685)
3(681 685 682)
3(682 685 686)
3(682 686 683)
3(683 686 687)
3(683 687 346)
3(346 687 347)
3(115 116 684)
3(684 116 688)
3(684 688 685)
3(685 688 689)
3(685 689 686)
3(686 689 690)
3(686 690 687)
3(687 690 691)
3(687 691 347)
3(347 691 348)
3(116 117 688)
3(688 117 692)
3(688 692 689)
3(689 692 693)
3(689 693 690)
3(690 693 694)
3(690 694 691)
3(691 694 695)
3(691 695 348)
3(348 695 349)
3(117 118 692)
3(692 118 696)
3(692 696 693)
3(693 696 697)
3(693 697 694)
3(694 697 698)
3(694 698 695)
3(695 698 699)
3(695 699 349)
3(349 699 350)
3(118 119 696)
3(696 119 700)
3(696 700 697)
3(697 700 701)
3(697 701 698)
3(698 701 702)
3(698 702 699)
3(699 702 703)
3(699 703 350)
3(350 703 351)
3(119 120 700)
3(700 120 704)
3(700 704 701)
3(701 704 705)
3(701 705 702)
3(702 705 706)
3(702 706 703)
3(703 706 707)
3(703 707 351)
3(351 707 352)
3(120 121 704)
3(704 121 708)
3(704 708 705)
3(705 708 709)
3(705 709 706)
3(706 709 710)
3(706 710 707)
3(707 710 711)
3(707 711 352)
3(352 711 353)
3(121 122 708)
3(708 122 712)
3(708 712 709)
3(709 712 713)
3(709 713 710)
3(710 713 714)
3(710 714 711)
3(711 714 715)
3(711 715 353)
3(353 715 354)
3(122 123 712)
3(712 123 716)
3(712 716 713)
3(713 716 717)
3(713 717 714)
3(714 717 718)
3(714 718 715)
3(715 718 719)
3(715 719 354)
3(354 719 355)
3(123 3 716)
3(716 3 487)
3(716 487 717)
3(717 487 486)
3(717 486 718)
3(718 486 485)
3(718 485 719)
3(719 485 484)
3(719 484 355)
3(355 484 1)
3(1 484 356)
3(356 484 720)
3(356 720 357)
3(357 720 721)
3(357 721 358)
3(358 721 722)
3(358 722 359)
3(359 722 723)
3(359 723 360)
3(360 723 724)
3(360 724 361)
3(361 724 725)
3(361 725 362)
3(362 725 726)
3(362 726 363)
3(363 726 727)
3(363 727 364)
3(364 727 728)
3(364 728 365)
3(365 728 729)
3(365 729 366)
3(366 729 730)
3(366 730 367)
3(367 730 731)
3(367 731 368)
3(368 731 732)
3(368 732 369)
3(369 732 733)
3(369 733 370)
3(370 733 734)
3(370 734 371)
3(371 734 735)
3(371 735 372)
3(372 735 736)
3(372 736 373)
3(373 736 737)
3(373 737 374)
3(374 737 738)
3(374 738 375)
3(375 738 739)
3(375 739 376)
3(376 739 740)
3(376 740 377)
3(377 740 741)
3(377 741 378)
3(378 741 742)
3(378 742 379)
3(379 742 743)
3(379 743 380)
3(380 743 744)
3(380 744 381)
3(381 744 745)
3(381 745 382)
3(382 745 746)
3(382 746 383)
3(383 746 747)
3(383 747 384)
3(384 747 748)
3(384 748 385)
3(385 748 749)
3(385 749 386)
3(386 749 750)
3(386 750 387)
3(387 750 751)
3(387 751 388)
3(388 751 752)
3(388 752 389)
3(389 752 753)
3(389 753 390)
3(390 753 754)
3(390 754 391)
3(391 754 755)
3(391 755 392)
3(392 755 756)
3(392 756 393)
3(393 756 757)
3(393 757 394)
3(394 757 758)
3(394 758 395)
3(395 758 759)
3(395 759 396)
3(396 759 760)
3(396 760 397)
3(397 760 761)
3(397 761 398)
3(398 761 762)
3(398 762 399)
3(399 762 763)
3(399 763 400)
3(400 763 764)
3(400 764 401)
3(401 764 765)
3(401 765 402)
3(402 765 766)
3(402 766 403)
3(403 766 767)
3(403 767 404)
3(404 767 768)
3(404 768 405)
3(405 768 769)
3(405 769 406)
3(406 769 770)
3(406 770 407)
3(407 770 771)
3(407 771 408)
3(408 771 772)
3(408 772 409)
3(409 772 773)
3(409 773 410)
3(410 773 774)
3(410 774 411)
3(411 774 775)
3(411 775 412)
3(412 775 776)
3(412 776 413)
3(413 776 777)
3(413 777 5)
3(5 777 480)
3(484 485 720)
3(720 485 778)
3(720 778 721)
3(721 778 779)
3(721 779 722)
3(722 779 780)
3(722 780 723)
3(723 780 781)
3(723 781 724)
3(724 781 782)
3(724 782 725)
3(725 782 783)
3(725 783 726)
3(726 783 784)
3(726 784 727)
3(727 784 785)
3(727 785 728)
3(728 785 786)
3(728 786 729)
3(729 786 787)
3(729 787 730)
3(730 787 788)
3(730 788 731)
3(731 788 789)
3(731 789 732)
3(732 789 790)
3(732 790 733)
3(733 790 791)
3(733 791 734)
3(734 791 792)
3(734 792 735)
3(735 792 793)
3(735 793 736)
3(736 793 794)
3(736 794 737)
3(737 794 795)
3(737 795 738)
3(738 795 796)
3(738 796 739)
3(739 796 797)
3(739 797 740)
3(740 797 798)
3(740 798 741)
3(741 798 799)
3(741 799 742)
3(742 799 800)
3(742 800 743)
3(743 800 801)
3(743 801 744)
3(744 801 802)
3(744 802 745)
3(745 802 803)
3(745 803 746)
3(746 803 804)
3(746 804 747)
3(747 804 805)
3(747 805 748)
3(748 805 806)
3(748 806 749)
3(749 806 807)
3(749 807 750)
3(750 807 808)
3(750 808 751)
3(751 808 809)
3(751 809 752)
3(752 809 810)
3(752 810 753)
3(753 810 811)
3(753 811 754)
3(754 811 812)
3(754 812 755)
3(755 812 813)
3(755 813 756)
3(756 813 814)
3(756 814 757)
3(757 814 815)
3(757 815 758)
3(758 815 816)
3(758 816 759)
3(759 816 817)
3(759 817 760)
3(760 817 818)
3(760 818 761)
3(761 818 819)
3(761 819 762)
3(762 819 820)
3(762 820 763)
3(763 820 821)
3(763 821 764)
3(764 821 822)
3(764 822 765)
3(765 822 823)
3(765 823 766)
3(766 823 824)
3(766 824 767)
3(767 824 825)
3(767 825 768)
3(768 825 826)
3(768 826 769)
3(769 826 827)
3(769 827 770)
3(770 827 828)
3(770 828 771)
3(771 828 829)
3(771 829 772)
3(772 829 830)
3(772 830 773)
3(773 830 831)
3(773 831 774)
3(774 831 832)
3(774 832 775)
3(775 832 833)
3(775 833 776)
3(776 833 834)
3(776 834 777)
3(777 834 835)
3(777 835 480)
3(480 835 481)
3(485 486 778)
3(778 486 836)
3(778 836 779)
3(779 836 837)
3(779 837 780)
3(780 837 838)
3(780 838 781)
3(781 838 839)
3(781 839 782)
3(782 839 840)
3(782 840 783)
3(783 840 841)
3(783 841 784)
3(784 841 842)
3(784 842 785)
3(785 842 843)
3(785 843 786)
3(786 843 844)
3(786 844 787)
3(787 844 845)
3(787 845 788)
3(788 845 846)
3(788 846 789)
3(789 846 847)
3(789 847 790)
3(790 847 848)
3(790 848 791)
3(791 848 849)
3(791 849 792)
3(792 849 850)
3(792 850 793)
3(793 850 851)
3(793 851 794)
3(794 851 852)
3(794 852 795)
3(795 852 853)
3(795 853 796)
3(796 853 854)
3(796 854 797)
3(797 854 855)
3(797 855 798)
3(798 855 856)
3(798 856 799)
3(799 856 857)
3(799 857 800)
3(800 857 858)
3(800 858 801)
3(801 858 859)
3(801 859 802)
3(802 859 860)
3(802 860 803)
3(803 860 861)
3(803 861 804)
3(804 861 862)
3(804 862 805)
3(805 862 863)
3(805 863 806)
3(806 863 864)
3(806 864 807)
3(807 864 865)
3(807 865 808)
3(808 865 866)
3(808 866 809)
3(809 866 867)
3(809 867 810)
3(810 867 868)
3(810 868 811)
3(811 868 869)
3(811 869 812)
3(812 869 870)
3(812 870 813)
3(813 870 871)
3(813 871 814)
3(814 871 872)
3(814 872 815)
3(815 872 873)
3(815 873 816)
3(816 873 874)
3(816 874 817)
3(817 874 875)
3(817 875 818)
3(818 875 876)
3(818 876 819)
3(819 876 877)
3(819 877 820)
3(820 877 878)
3(820 878 821)
3(821 878 879)
3(821 879 822)
3(822 879 880)
3(822 880 823)
3(823 880 881)
3(823 881 824)
3(824 881 882)
3(824 882 825)
3(825 882 883)
3(825 883 826)
3(826 883 884)
3(826 884 827)
3(827 884 885)
3(827 885 828)
3(828 885 886)
3(828 886 829)
3(829 886 887)
3(829 887 830)
3(830 887 888)
3(830 888 831)
3(831 888 889)
3(831 889 832)
3(832 889 890)
3(832 890 833)
3(833 890 891)
3(833 891 834)
3(834 891 892)
3(834 892 835)
3(835 892 893)
3(835 893 481)
3(481 893 482)
3(486 487 836)
3(836 487 894)
3(836 894 837)
3(837 894 895)
3(837 895 838)
3(838 895 896)
3(838 896 839)
3(839 896 897)
3(839 897 840)
3(840 897 898)
3(840 898 841)
3(841 898 899)
3(841 899 842)
3(842 899 900)
3(842 900 843)
3(843 900 901)
3(843 901 844)
3(844 901 902)
3(844 902 845)
3(845 902 903)
3(845 903 846)
3(846 903 904)
3(846 904 847)
3(847 904 905)
3(847 905 848)
3(848 905 906)
3(848 906 849)
3(849 906 907)
3(849 907 850)
3(850 907 908)
3(850 908 851)
3(851 908 909)
3(851 909 852)
3(852 909 910)
3(852 910 853)
3(853 910 911)
3(853 911 854)
3(854 911 912)
3(854 912 855)
3(855 912 913)
3(855 913 856)
3(856 913 914)
3(856 914 857)
3(857 914 915)
3(857 915 858)
3(858 915 916)
3(858 916 859)
3(859 916 917)
3(859 917 860)
3(860 917 918)
3(860 918 861)
3(861 918 919)
3(861 919 862)
3(862 919 920)
3(862 920 863)
3(863 920 921)
3(863 921 864)
3(864 921 922)
3(864 922 865)
3(865 922 923)
3(865 923 866)
3(866 923 924)
3(866 924 867)
3(867 924 925)
3(867 925 868)
3(868 925 926)
3(868 926 869)
3(869 926 927)
3(869 927 870)
3(870 927 928)
3(870 928 871)
3(871 928 929)
3(871 929 872)
3(872 929 930)
3(872 930 873)
3(873 930 931)
3(873 931 874)
3(874 931 932)
3(874 932 875)
3(875 932 933)
3(875 933 876)
3(876 933 934)
3(876 934 877)
3(877 934 935)
3(877 935 878)
3(878 935 936)
3(878 936 879)
3(879 936 937)
3(879 937 880)
3(880 937 938)
3(880 938 881)
3(881 938 939)
3(881 939 882)
3(882 939 940)
3(882 940 883)
3(883 940 941)
3(883 941 884)
3(884 941 942)
3(884 942 885)
3(885 942 943)
3(885 943 886)
3(886 943 944)
3(886 944 887)
3(887 944 945)
3(887 945 888)
3(888 945 946)
3(888 946 889)
3(889 946 947)
3(889 947 890)
3(890 947 948)
3(890 948 891)
3(891 948 949)
3(891 949 892)
3(892 949 950)
3(892 950 893)
3(893 950 951)
3(893 951 482)
3(482 951 483)
3(487 3 894)
3(894 3 124)
3(894 124 895)
3(895 124 125)
3(895 125 896)
3(896 125 126)
3(896 126 897)
3(897 126 127)
3(897 127 898)
3(898 127 128)
3(898 128 899)
3(899 128 129)
3(899 129 900)
3(900 129 130)
3(900 130 901)
3(901 130 131)
3(901 131 902)
3(902 131 132)
3(902 132 903)
3(903 132 133)
3(903 133 904)
3(904 133 134)
3(904 134 905)
3(905 134 135)
3(905 135 906)
3(906 135 136)
3(906 136 907)
3(907 136 137)
3(907 137 908)
3(908 137 138)
3(908 138 909)
3(909 138 139)
3(909 139 910)
3(910 139 140)
3(910 140 911)
3(911 140 141)
3(911 141 912)
3(912 141 142)
3(912 142 913)
3(913 142 143)
3(913 143 914)
3(914 143 144)
3(914 144 915)
3(915 144 145)
3(915 145 916)
3(916 145 146)
3(916 146 917)
3(917 146 147)
3(917 147 918)
3(918 147 148)
3(918 148 919)
3(919 148 149)
3(919 149 920)
3(920 149 150)
3(920 150 921)
3(921 150 151)
3(921 151 922)
3(922 151 152)
3(922 152 923)
3(923 152 153)
3(923 153 924)
3(924 153 154)
3(924 154 925)
3(925 154 155)
3(925 155 926)
3(926 155 156)
3(926 156 927)
3(927 156 157)
3(927 157 928)
3(928 157 158)
3(928 158 929)
3(929 158 159)
3(929 159 930)
3(930 159 160)
3(930 160 931)
3(931 160 161)
3(931 161 932)
3(932 161 162)
3(932 162 933)
3(933 162 163)
3(933 163 934)
3(934 163 164)
3(934 164 935)
3(935 164 165)
3(935 165 936)
3(936 165 166)
3(936 166 937)
3(937 166 167)
3(937 167 938)
3(938 167 168)
3(938 168 939)
3(939 168 169)
3(939 169 940)
3(940 169 170)
3(940 170 941)
3(941 170 171)
3(941 171 942)
3(942 171 172)
3(942 172 943)
3(943 172 173)
3(943 173 944)
3(944 173 174)
3(944 174 945)
3(945 174 175)
3(945 175 946)
3(946 175 176)
3(946 176 947)
3(947 176 177)
3(947 177 948)
3(948 177 178)
3(948 178 949)
3(949 178 179)
3(949 179 950)
3(950 179 180)
3(950 180 951)
3(951 180 181)
3(951 181 483)
3(483 181 7)
3(5 480 414)
3(414 480 952)
3(414 952 415)
3(415 952 953)
3(415 953 416)
3(416 953 954)
3(416 954 417)
3(417 954 955)
3(417 955 418)
3(418 955 956)
3(418 956 419)
3(419 956 957)
3(419 957 420)
3(420 957 958)
3(420 958 421)
3(421 958 959)
3(421 959 422)
3(422 959 960)
3(422 960 423)
3(423 960 961)
3(423 961 424)
3(424 961 962)
3(424 962 425)
3(425 962 963)
3(425 963 426)
3(426 963 964)
3(426 964 427)
3(427 964 965)
3(427 965 428)
3(428 965 966)
3(428 966 429)
3(429 966 967)
3(429 967 430)
3(430 967 968)
3(430 968 431)
3(431 968 969)
3(431 969 432)
3(432 969 970)
3(432 970 433)
3(433 970 971)
3(433 971 434)
3(434 971 972)
3(434 972 435)
3(435 972 973)
3(435 973 436)
3(436 973 974)
3(436 974 437)
3(437 974 975)
3(437 975 438)
3(438 975 976)
3(438 976 439)
3(439 976 977)
3(439 977 440)
3(440 977 978)
3(440 978 441)
3(441 978 979)
3(441 979 442)
3(442 979 980)
3(442 980 443)
3(443 980 981)
3(443 981 444)
3(444 981 982)
3(444 982 445)
3(445 982 983)
3(445 983 446)
3(446 983 984)
3(446 984 447)
3(447 984 985)
3(447 985 448)
3(448 985 986)
3(448 986 449)
3(449 986 987)
3(449 987 450)
3(450 987 988)
3(450 988 451)
3(451 988 989)
3(451 989 452)
3(452 989 990)
3(452 990 453)
3(453 990 991)
3(453 991 454)
3(454 991 992)
3(454 992 455)
3(455 992 993)
3(455 993 456)
3(456 993 994)
3(456 994 457)
3(457 994 995)
3(457 995 458)
3(458 995 996)
3(458 996 459)
3(459 996 997)
3(459 997 460)
3(460 997 998)
3(460 998 461)
3(461 998 999)
3(461 999 462)
3(462 999 1000)
3(462 1000 463)
3(463 1000 1001)
3(463 1001 464)
3(464 1001 1002)
3(464 1002 465)
3(465 1002 1003)
3(465 1003 466)
3(466 1003 1004)
3(466 1004 467)
3(467 1004 1005)
3(467 1005 468)
3(468 1005 1006)
3(468 1006 469)
3(469 1006 1007)
3(469 1007 470)
3(470 1007 1008)
3(470 1008 471)
3(471 1008 1009)
3(471 1009 0)
3(0 1009 476)
3(480 481 952)
3(952 481 1010)
3(952 1010 953)
3(953 1010 1011)
3(953 1011 954)
3(954 1011 1012)
3(954 1012 955)
3(955 1012 1013)
3(955 1013 956)
3(956 1013 1014)
3(956 1014 957)
3(957 1014 1015)
3(957 1015 958)
3(958 1015 1016)
3(958 1016 959)
3(959 1016 1017)
3(959 1017 960)
3(960 1017 1018)
3(960 1018 961)
3(961 1018 1019)
3(961 1019 962)
3(962 1019 1020)
3(962 1020 963)
3(963 1020 1021)
3(963 1021 964)
3(964 1021 1022)
3(964 1022 965)
3(965 1022 1023)
3(965 1023 966)
3(966 1023 1024)
3(966 1024 967)
3(967 1024 1025)
3(967 1025 968)
3(968 1025 1026)
3(968 1026 969)
3(969 1026 1027)
3(969 1027 970)
3(970 1027 1028)
3(970 1028 971)
3(971 1028 1029)
3(971 1029 972)
3(972 1029 1030)
3(972 1030 973)
3(973 1030 1031)
3(973 1031 974)
3(974 1031 1032)
3(974 1032 975)
3(975 1032 1033)
3(975 1033 976)
3(976 1033 1034)
3(976 1034 977)
3(977 1034 1035)
3(977 1035 978)
3(978 1035 1036)
3(978 1036 979)
3(979 1036 1037)
3(979 1037 980)
3(980 1037 1038)
3(980 1038 981)
3(981 1038 1039)
3(981 1039 982)
3(982 1039 1040)
3(982 1040 983)
3(983 1040 1041)
3(983 1041 984)
3(984 1041 1042)
3(984 1042 985)
3(985 1042 1043)
3(985 1043 986)
3(986 1043 1044)
3(986 1044 987)
3(987 1044 1045)
3(987 1045 988)
3(988 1045 1046)
3(988 1046 989)
3(989 1046 1047)
3(989 1047 990)
3(990 1047 1048)
3(990 1048 991)
3(991 1048 1049)
3(991 1049 992)
3(992 1049 1050)
3(992 1050 993)
3(993 1050 1051)
3(993 1051 994)
3(994 1051 1052)
3(994 1052 995)
3(995 1052 1053)
3(995 1053 996)
3(996 1053 1054)
3(996 1054 997)
3(997 1054 1055)
3(997 1055 998)
3(998 1055 1056)
3(998 1056 999)
3(999 1056 1057)
3(999 1057 1000)
3(1000 1057 1058)
3(1000 1058 1001)
3(1001 1058 1059)
3(1001 1059 1002)
3(1002 1059 1060)
3(1002 1060 1003)
3(1003 1060 1061)
3(1003 1061 1004)
3(1004 1061 1062)
3(1004 1062 1005)
3(1005 1062 1063)
3(1005 1063 1006)
3(1006 1063 1064)
3(1006 1064 1007)
3(1007 1064 1065)
3(1007 1065 1008)
3(1008 1065 1066)
3(1008 1066 1009)
3(1009 1066 1067)
3(1009 1067 476)
3(476 1067 477)
3(481 482 1010)
3(1010 482 1068)
3(1010 1068 1011)
3(1011 1068 1069)
3(1011 1069 1012)
3(1012 1069 1070)
3(1012 1070 1013)
3(1013 1070 1071)
3(1013 1071 1014)
3(1014 1071 1072)
3(1014 1072 1015)
3(1015 1072 1073)
3(1015 1073 1016)
3(1016 1073 1074)
3(1016 1074 1017)
3(1017 1074 1075)
3(1017 1075 1018)
3(1018 1075 1076)
3(1018 1076 1019)
3(1019 1076 1077)
3(1019 1077 1020)
3(1020 1077 1078)
3(1020 1078 1021)
3(1021 1078 1079)
3(1021 1079 1022)
3(1022 1079 1080)
3(1022 1080 1023)
3(1023 1080 1081)
3(1023 1081 1024)
3(1024 1081 1082)
3(1024 1082 1025)
3(1025 1082 1083)
3(1025 1083 1026)
3(1026 1083 1084)
3(1026 1084 1027)
3(1027 1084 1085)
3(1027 1085 1028)
3(1028 1085 1086)
3(1028 1086 1029)
3(1029 1086 1087)
3(1029 1087 1030)
3(1030 1087 1088)
3(1030 1088 1031)
3(1031 1088 1089)
3(1031 1089 1032)
3(1032 1089 1090)
3(1032 1090 1033)
3(1033 1090 1091)
3(1033 1091 1034)
3(1034 1091 1092)
3(1034 1092 1035)
3(1035 1092 1093)
3(1035 1093 1036)
3(1036 1093 1094)
3(1036 1094 1037)
3(1037 1094 1095)
3(1037 1095 1038)
3(1038 1095 1096)
3(1038 1096 1039)
3(1039 1096 1097)
3(1039 1097 1040)
3(1040 1097 1098)
3(1040 1098 1041)
3(1041 1098 1099)
3(1041 1099 1042)
3(1042 1099 1100)
3(1042 1100 1043)
3(1043 1100 1101)
3(1043 1101 1044)
3(1044 1101 1102)
3(1044 1102 1045)
3(1045 1102 1103)
3(1045 1103 1046)
3(1046 1103 1104)
3(1046 1104 1047)
3(1047 1104 1105)
3(1047 1105 1048)
3(1048 1105 1106)
3(1048 1106 1049)
3(1049 1106 1107)
3(1049 1107 1050)
3(1050 1107 1108)
3(1050 1108 1051)
3(1051 1108 1109)
3(1051 1109 1052)
3(1052 1109 1110)
3(1052 1110 1053)
3(1053 1110 1111)
3(1053 1111 1054)
3(1054 1111 1112)
3(1054 1112 1055)
3(1055 1112 1113)
3(1055 1113 1056)
3(1056 1113 1114)
3(1056 1114 1057)
3(1057 1114 1115)
3(1057 1115 1058)
3(1058 1115 1116)
3(1058 1116 1059)
3(1059 1116 1117)
3(1059 1117 1060)
3(1060 1117 1118)
3(1060 1118 1061)
3(1061 1118 1119)
3(1061 1119 1062)
3(1062 1119 1120)
3(1062 1120 1063)
3(1063 1120 1121)
3(1063 1121 1064)
3(1064 1121 1122)
3(1064 1122 1065)
3(1065 1122 1123)
3(1065 1123 1066)
3(1066 1123 1124)
3(1066 1124 1067)
3(1067 1124 1125)
3(1067 1125 477)
3(477 1125 478)
3(482 483 1068)
3(1068 483 1126)
3(1068 1126 1069)
3(1069 1126 1127)
3(1069 1127 1070)
3(1070 1127 1128)
3(1070 1128 1071)
3(1071 1128 1129)
3(1071 1129 1072)
3(1072 1129 1130)
3(1072 1130 1073)
3(1073 1130 1131)
3(1073 1131 1074)
3(1074 1131 1132)
3(1074 1132 1075)
3(1075 1132 1133)
3(1075 1133 1076)
3(1076 1133 1134)
3(1076 1134 1077)
3(1077 1134 1135)
3(1077 1135 1078)
3(1078 1135 1136)
3(1078 1136 1079)
3(1079 1136 1137)
3(1079 1137 1080)
3(1080 1137 1138)
3(1080 1138 1081)
3(1081 1138 1139)
3(1081 1139 1082)
3(1082 1139 1140)
3(1082 1140 1083)
3(1083 1140 1141)
3(1083 1141 1084)
3(1084 1141 1142)
3(1084 1142 1085)
3(1085 1142 1143)
3(1085 1143 1086)
3(1086 1143 1144)
3(1086 1144 1087)
3(1087 1144 1145)
3(1087 1145 1088)
3(1088 1145 1146)
3(1088 1146 1089)
3(1089 1146 1147)
3(1089 1147 1090)
3(1090 1147 1148)
3(1090 1148 1091)
3(1091 1148 1149)
3(1091 1149 1092)
3(1092 1149 1150)
3(1092 1150 1093)
3(1093 1150 1151)
3(1093 1151 1094)
3(1094 1151 1152)
3(1094 1152 1095)
3(1095 1152 1153)
3(1095 1153 1096)
3(1096 1153 1154)
3(1096 1154 1097)
3(1097 1154 1155)
3(1097 1155 1098)
3(1098 1155 1156)
3(1098 1156 1099)
3(1099 1156 1157)
3(1099 1157 1100)
3(1100 1157 1158)
3(1100 1158 1101)
3(1101 1158 1159)
3(1101 1159 1102)
3(1102 1159 1160)
3(1102 1160 1103)
3(1103 1160 1161)
3(1103 1161 1104)
3(1104 1161 1162)
3(1104 1162 1105)
3(1105 1162 1163)
3(1105 1163 1106)
3(1106 1163 1164)
3(1106 1164 1107)
3(1107 1164 1165)
3(1107 1165 1108)
3(1108 1165 1166)
3(1108 1166 1109)
3(1109 1166 1167)
3(1109 1167 1110)
3(1110 1167 1168)
3(1110 1168 1111)
3(1111 1168 1169)
3(1111 1169 1112)
3(1112 1169 1170)
3(1112 1170 1113)
3(1113 1170 1171)
3(1113 1171 1114)
3(1114 1171 1172)
3(1114 1172 1115)
3(1115 1172 1173)
3(1115 1173 1116)
3(1116 1173 1174)
3(1116 1174 1117)
3(1117 1174 1175)
3(1117 1175 1118)
3(1118 1175 1176)
3(1118 1176 1119)
3(1119 1176 1177)
3(1119 1177 1120)
3(1120 1177 1178)
3(1120 1178 1121)
3(1121 1178 1179)
3(1121 1179 1122)
3(1122 1179 1180)
3(1122 1180 1123)
3(1123 1180 1181)
3(1123 1181 1124)
3(1124 1181 1182)
3(1124 1182 1125)
3(1125 1182 1183)
3(1125 1183 478)
3(478 1183 479)
3(483 7 1126)
3(1126 7 182)
3(1126 182 1127)
3(1127 182 183)
3(1127 183 1128)
3(1128 183 184)
3(1128 184 1129)
3(1129 184 185)
3(1129 185 1130)
3(1130 185 186)
3(1130 186 1131)
3(1131 186 187)
3(1131 187 1132)
3(1132 187 188)
3(1132 188 1133)
3(1133 188 189)
3(1133 189 1134)
3(1134 189 190)
3(1134 190 1135)
3(1135 190 191)
3(1135 191 1136)
3(1136 191 192)
3(1136 192 1137)
3(1137 192 193)
3(1137 193 1138)
3(1138 193 194)
3(1138 194 1139)
3(1139 194 195)
3(1139 195 1140)
3(1140 195 196)
3(1140 196 1141)
3(1141 196 197)
3(1141 197 1142)
3(1142 197 198)
3(1142 198 1143)
3(1143 198 199)
3(1143 199 1144)
3(1144 199 200)
3(1144 200 1145)
3(1145 200 201)
3(1145 201 1146)
3(1146 201 202)
3(1146 202 1147)
3(1147 202 203)
3(1147 203 1148)
3(1148 203 204)
3(1148 204 1149)
3(1149 204 205)
3(1149 205 1150)
3(1150 205 206)
3(1150 206 1151)
3(1151 206 207)
3(1151 207 1152)
3(1152 207 208)
3(1152 208 1153)
3(1153 208 209)
3(1153 209 1154)
3(1154 209 210)
3(1154 210 1155)
3(1155 210 211)
3(1155 211 1156)
3(1156 211 212)
3(1156 212 1157)
3(1157 212 213)
3(1157 213 1158)
3(1158 213 214)
3(1158 214 1159)
3(1159 214 215)
3(1159 215 1160)
3(1160 215 216)
3(1160 216 1161)
3(1161 216 217)
3(1161 217 1162)
3(1162 217 218)
3(1162 218 1163)
3(1163 218 219)
3(1163 219 1164)
3(1164 219 220)
3(1164 220 1165)
3(1165 220 221)
3(1165 221 1166)
3(1166 221 222)
3(1166 222 1167)
3(1167 222 223)
3(1167 223 1168)
3(1168 223 224)
3(1168 224 1169)
3(1169 224 225)
3(1169 225 1170)
3(1170 225 226)
3(1170 226 1171)
3(1171 226 227)
3(1171 227 1172)
3(1172 227 228)
3(1172 228 1173)
3(1173 228 229)
3(1173 229 1174)
3(1174 229 230)
3(1174 230 1175)
3(1175 230 231)
3(1175 231 1176)
3(1176 231 232)
3(1176 232 1177)
3(1177 232 233)
3(1177 233 1178)
3(1178 233 234)
3(1178 234 1179)
3(1179 234 235)
3(1179 235 1180)
3(1180 235 236)
3(1180 236 1181)
3(1181 236 237)
3(1181 237 1182)
3(1182 237 238)
3(1182 238 1183)
3(1183 238 239)
3(1183 239 479)
3(479 239 2)
3(0 476 240)
3(240 476 1184)
3(240 1184 241)
3(241 1184 1185)
3(241 1185 242)
3(242 1185 1186)
3(242 1186 243)
3(243 1186 1187)
3(243 1187 244)
3(244 1187 1188)
3(244 1188 245)
3(245 1188 1189)
3(245 1189 246)
3(246 1189 1190)
3(246 1190 247)
3(247 1190 1191)
3(247 1191 248)
3(248 1191 1192)
3(248 1192 249)
3(249 1192 1193)
3(249 1193 250)
3(250 1193 1194)
3(250 1194 251)
3(251 1194 1195)
3(251 1195 252)
3(252 1195 1196)
3(252 1196 253)
3(253 1196 1197)
3(253 1197 254)
3(254 1197 1198)
3(254 1198 255)
3(255 1198 1199)
3(255 1199 256)
3(256 1199 1200)
3(256 1200 257)
3(257 1200 1201)
3(257 1201 258)
3(258 1201 1202)
3(258 1202 259)
3(259 1202 1203)
3(259 1203 260)
3(260 1203 1204)
3(260 1204 261)
3(261 1204 1205)
3(261 1205 262)
3(262 1205 1206)
3(262 1206 263)
3(263 1206 1207)
3(263 1207 264)
3(264 1207 1208)
3(264 1208 265)
3(265 1208 1209)
3(265 1209 266)
3(266 1209 1210)
3(266 1210 267)
3(267 1210 1211)
3(267 1211 268)
3(268 1211 1212)
3(268 1212 269)
3(269 1212 1213)
3(269 1213 270)
3(270 1213 1214)
3(270 1214 271)
3(271 1214 1215)
3(271 1215 272)
3(272 1215 1216)
3(272 1216 273)
3(273 1216 1217)
3(273 1217 274)
3(274 1217 1218)
3(274 1218 275)
3(275 1218 1219)
3(275 1219 276)
3(276 1219 1220)
3(276 1220 277)
3(277 1220 1221)
3(277 1221 278)
3(278 1221 1222)
3(278 1222 279)
3(279 1222 1223)
3(279 1223 280)
3(280 1223 1224)
3(280 1224 281)
3(281 1224 1225)
3(281 1225 282)
3(282 1225 1226)
3(282 1226 283)
3(283 1226 1227)
3(283 1227 284)
3(284 1227 1228)
3(284 1228 285)
3(285 1228 1229)
3(285 1229 286)
3(286 1229 1230)
3(286 1230 287)
3(287 1230 1231)
3(287 1231 288)
3(288 1231 1232)
3(288 1232 289)
3(289 1232 1233)
3(289 1233 290)
3(290 1233 1234)